# generated using pymatgen
data_Ti10MnSb5
_symmetry_space_group_name_H-M   'P 1'
_cell_length_a   5.24023161
_cell_length_b   7.87439505
_cell_length_c   7.87439603
_cell_angle_alpha   96.35652858
_cell_angle_beta   109.43508813
_cell_angle_gamma   70.56491949
_symmetry_Int_Tables_number   1
_chemical_formula_structural   Ti10MnSb5
_chemical_formula_sum   'Ti10 Mn1 Sb5'
_cell_volume   288.95213007
_cell_formula_units_Z   1
loop_
 _symmetry_equiv_pos_site_id
 _symmetry_equiv_pos_as_xyz
  1  'x, y, z'
loop_
 _atom_site_type_symbol
 _atom_site_label
 _atom_site_symmetry_multiplicity
 _atom_site_fract_x
 _atom_site_fract_y
 _atom_site_fract_z
 _atom_site_occupancy
  Ti  Ti0  1  0.437626  0.858083  0.708604  1
  Ti  Ti1  1  0.587104  0.141917  0.291396  1
  Ti  Ti2  1  0.912896  0.291396  0.141917  1
  Ti  Ti3  1  0.062374  0.708604  0.858083  1
  Ti  Ti4  1  0.729022  0.708604  0.141917  1
  Ti  Ti5  1  0.295708  0.291396  0.858083  1
  Ti  Ti6  1  0.770978  0.141917  0.708604  1
  Ti  Ti7  1  0.204292  0.858083  0.291396  1
  Ti  Ti8  1  0.250000  0.500000  0.500000  1
  Ti  Ti9  1  0.750000  0.500000  0.500000  1
  Mn  Mn10  1  0.750000  0.000000  0.000000  1
  Sb  Sb11  1  0.336353  0.500000  0.172704  1
  Sb  Sb12  1  0.663647  0.500000  0.827296  1
  Sb  Sb13  1  0.836353  0.827296  0.500000  1
  Sb  Sb14  1  0.163647  0.172704  0.500000  1
  Sb  Sb15  1  0.250000  0.000000  0.000000  1
