# generated using pymatgen
data_Zr10CoBi6P
_symmetry_space_group_name_H-M   'P 1'
_cell_length_a   8.82492100
_cell_length_b   8.82492231
_cell_length_c   5.93878800
_cell_angle_alpha   90.00000000
_cell_angle_beta   90.00000000
_cell_angle_gamma   119.99999883
_symmetry_Int_Tables_number   1
_chemical_formula_structural   Zr10CoBi6P
_chemical_formula_sum   'Zr10 Co1 Bi6 P1'
_cell_volume   400.54395005
_cell_formula_units_Z   1
loop_
 _symmetry_equiv_pos_site_id
 _symmetry_equiv_pos_as_xyz
  1  'x, y, z'
loop_
 _atom_site_type_symbol
 _atom_site_label
 _atom_site_symmetry_multiplicity
 _atom_site_fract_x
 _atom_site_fract_y
 _atom_site_fract_z
 _atom_site_occupancy
  Zr  Zr0  1  0.753902  0.000000  0.248569  1
  Zr  Zr1  1  0.000000  0.753902  0.248569  1
  Zr  Zr2  1  0.246098  0.246098  0.248569  1
  Zr  Zr3  1  0.246098  0.000000  0.751431  1
  Zr  Zr4  1  0.000000  0.246098  0.751431  1
  Zr  Zr5  1  0.753902  0.753902  0.751431  1
  Zr  Zr6  1  0.333333  0.666667  0.500000  1
  Zr  Zr7  1  0.666667  0.333333  0.500000  1
  Zr  Zr8  1  0.666667  0.333333  0.000000  1
  Zr  Zr9  1  0.333333  0.666667  0.000000  1
  Co  Co10  1  0.000000  0.000000  0.000000  1
  Bi  Bi11  1  0.394493  0.000000  0.248159  1
  Bi  Bi12  1  0.000000  0.394493  0.248159  1
  Bi  Bi13  1  0.605507  0.605507  0.248159  1
  Bi  Bi14  1  0.605507  0.000000  0.751841  1
  Bi  Bi15  1  0.000000  0.605507  0.751841  1
  Bi  Bi16  1  0.394493  0.394493  0.751841  1
  P  P17  1  0.000000  0.000000  0.500000  1
