# generated using pymatgen
data_La2Sb4Pd3Ru
_symmetry_space_group_name_H-M   'P 1'
_cell_length_a   4.64039500
_cell_length_b   4.64039500
_cell_length_c   10.65796300
_cell_angle_alpha   90.00000000
_cell_angle_beta   90.00000000
_cell_angle_gamma   90.00000000
_symmetry_Int_Tables_number   1
_chemical_formula_structural   La2Sb4Pd3Ru
_chemical_formula_sum   'La2 Sb4 Pd3 Ru1'
_cell_volume   229.50074970
_cell_formula_units_Z   1
loop_
 _symmetry_equiv_pos_site_id
 _symmetry_equiv_pos_as_xyz
  1  'x, y, z'
loop_
 _atom_site_type_symbol
 _atom_site_label
 _atom_site_symmetry_multiplicity
 _atom_site_fract_x
 _atom_site_fract_y
 _atom_site_fract_z
 _atom_site_occupancy
  La  La0  1  0.000000  0.500000  0.249155  1
  La  La1  1  0.500000  0.000000  0.758888  1
  Sb  Sb2  1  0.000000  0.000000  0.504196  1
  Sb  Sb3  1  0.500000  0.500000  0.504196  1
  Sb  Sb4  1  0.000000  0.500000  0.861876  1
  Sb  Sb5  1  0.500000  0.000000  0.129742  1
  Pd  Pd6  1  0.000000  0.000000  0.999201  1
  Pd  Pd7  1  0.500000  0.500000  0.999201  1
  Pd  Pd8  1  0.500000  0.000000  0.373752  1
  Ru  Ru9  1  0.000000  0.500000  0.619793  1
