# generated using pymatgen
data_Zr10Ga2(BiPb)3
_symmetry_space_group_name_H-M   'P 1'
_cell_length_a   8.87762600
_cell_length_b   8.87762631
_cell_length_c   5.96039400
_cell_angle_alpha   90.00000000
_cell_angle_beta   90.00000000
_cell_angle_gamma   119.99999884
_symmetry_Int_Tables_number   1
_chemical_formula_structural   Zr10Ga2(BiPb)3
_chemical_formula_sum   'Zr10 Ga2 Bi3 Pb3'
_cell_volume   406.81720409
_cell_formula_units_Z   1
loop_
 _symmetry_equiv_pos_site_id
 _symmetry_equiv_pos_as_xyz
  1  'x, y, z'
loop_
 _atom_site_type_symbol
 _atom_site_label
 _atom_site_symmetry_multiplicity
 _atom_site_fract_x
 _atom_site_fract_y
 _atom_site_fract_z
 _atom_site_occupancy
  Zr  Zr0  1  0.666667  0.333333  0.002866  1
  Zr  Zr1  1  0.333333  0.666667  0.002866  1
  Zr  Zr2  1  0.333333  0.666667  0.497134  1
  Zr  Zr3  1  0.666667  0.333333  0.497134  1
  Zr  Zr4  1  0.739480  0.739480  0.750000  1
  Zr  Zr5  1  0.260520  0.000000  0.750000  1
  Zr  Zr6  1  0.000000  0.260520  0.750000  1
  Zr  Zr7  1  0.268888  0.268888  0.250000  1
  Zr  Zr8  1  0.731112  0.000000  0.250000  1
  Zr  Zr9  1  0.000000  0.731112  0.250000  1
  Ga  Ga10  1  0.000000  0.000000  0.006989  1
  Ga  Ga11  1  0.000000  0.000000  0.493011  1
  Bi  Bi12  1  0.392486  0.392486  0.750000  1
  Bi  Bi13  1  0.607514  0.000000  0.750000  1
  Bi  Bi14  1  0.000000  0.607514  0.750000  1
  Pb  Pb15  1  0.615436  0.615436  0.250000  1
  Pb  Pb16  1  0.384564  0.000000  0.250000  1
  Pb  Pb17  1  0.000000  0.384564  0.250000  1
