# generated using pymatgen
data_NdEu(CuSb2)2
_symmetry_space_group_name_H-M   'P 1'
_cell_length_a   4.40155900
_cell_length_b   4.40155900
_cell_length_c   10.01141600
_cell_angle_alpha   90.00000000
_cell_angle_beta   90.00000000
_cell_angle_gamma   90.00000000
_symmetry_Int_Tables_number   1
_chemical_formula_structural   NdEu(CuSb2)2
_chemical_formula_sum   'Nd1 Eu1 Cu2 Sb4'
_cell_volume   193.95838671
_cell_formula_units_Z   1
loop_
 _symmetry_equiv_pos_site_id
 _symmetry_equiv_pos_as_xyz
  1  'x, y, z'
loop_
 _atom_site_type_symbol
 _atom_site_label
 _atom_site_symmetry_multiplicity
 _atom_site_fract_x
 _atom_site_fract_y
 _atom_site_fract_z
 _atom_site_occupancy
  Nd  Nd0  1  0.500000  0.000000  0.253756  1
  Eu  Eu1  1  0.000000  0.500000  0.747416  1
  Cu  Cu2  1  0.500000  0.500000  0.499980  1
  Cu  Cu3  1  0.000000  0.000000  0.499980  1
  Sb  Sb4  1  0.500000  0.500000  0.001467  1
  Sb  Sb5  1  0.000000  0.000000  0.001467  1
  Sb  Sb6  1  0.000000  0.500000  0.347637  1
  Sb  Sb7  1  0.500000  0.000000  0.648296  1
