# generated using pymatgen
data_Tb5Dy(Sc2Bi3)2
_symmetry_space_group_name_H-M   'P 1'
_cell_length_a   9.04361261
_cell_length_b   9.04361314
_cell_length_c   6.21652000
_cell_angle_alpha   90.00000000
_cell_angle_beta   90.00000000
_cell_angle_gamma   119.95778268
_symmetry_Int_Tables_number   1
_chemical_formula_structural   Tb5Dy(Sc2Bi3)2
_chemical_formula_sum   'Tb5 Dy1 Sc4 Bi6'
_cell_volume   440.50058558
_cell_formula_units_Z   1
loop_
 _symmetry_equiv_pos_site_id
 _symmetry_equiv_pos_as_xyz
  1  'x, y, z'
loop_
 _atom_site_type_symbol
 _atom_site_label
 _atom_site_symmetry_multiplicity
 _atom_site_fract_x
 _atom_site_fract_y
 _atom_site_fract_z
 _atom_site_occupancy
  Tb  Tb0  1  0.243242  0.000050  0.750000  1
  Tb  Tb1  1  0.000050  0.243242  0.750000  1
  Tb  Tb2  1  0.243678  0.243678  0.250000  1
  Tb  Tb3  1  0.756613  0.999781  0.250000  1
  Tb  Tb4  1  0.999781  0.756613  0.250000  1
  Dy  Dy5  1  0.756489  0.756489  0.750000  1
  Sc  Sc6  1  0.666708  0.333286  0.000078  1
  Sc  Sc7  1  0.333286  0.666708  0.000078  1
  Sc  Sc8  1  0.333286  0.666708  0.499922  1
  Sc  Sc9  1  0.666708  0.333286  0.499922  1
  Bi  Bi10  1  0.395992  0.395992  0.750000  1
  Bi  Bi11  1  0.604725  0.999392  0.750000  1
  Bi  Bi12  1  0.999392  0.604725  0.750000  1
  Bi  Bi13  1  0.604744  0.604744  0.250000  1
  Bi  Bi14  1  0.395332  0.999973  0.250000  1
  Bi  Bi15  1  0.999973  0.395332  0.250000  1
