# generated using pymatgen
data_Er3In3BiRh2
_symmetry_space_group_name_H-M   'P 1'
_cell_length_a   7.78273500
_cell_length_b   7.78273542
_cell_length_c   3.95654100
_cell_angle_alpha   90.00000000
_cell_angle_beta   90.00000000
_cell_angle_gamma   119.99999394
_symmetry_Int_Tables_number   1
_chemical_formula_structural   Er3In3BiRh2
_chemical_formula_sum   'Er3 In3 Bi1 Rh2'
_cell_volume   207.54431346
_cell_formula_units_Z   1
loop_
 _symmetry_equiv_pos_site_id
 _symmetry_equiv_pos_as_xyz
  1  'x, y, z'
loop_
 _atom_site_type_symbol
 _atom_site_label
 _atom_site_symmetry_multiplicity
 _atom_site_fract_x
 _atom_site_fract_y
 _atom_site_fract_z
 _atom_site_occupancy
  Er  Er0  1  0.030212  0.613089  0.500000  1
  Er  Er1  1  0.386911  0.417123  0.500000  1
  Er  Er2  1  0.582877  0.969788  0.500000  1
  In  In3  1  0.238471  0.979744  0.000000  1
  In  In4  1  0.741273  0.761529  0.000000  1
  In  In5  1  0.020256  0.258727  0.000000  1
  Bi  Bi6  1  0.666667  0.333333  0.000000  1
  Rh  Rh7  1  0.333333  0.666667  0.000000  1
  Rh  Rh8  1  0.000000  0.000000  0.500000  1
