# generated using pymatgen
data_Tm3Co2Sn3Pd
_symmetry_space_group_name_H-M   'P 1'
_cell_length_a   7.48479800
_cell_length_b   7.48479918
_cell_length_c   3.71385400
_cell_angle_alpha   90.00000000
_cell_angle_beta   90.00000000
_cell_angle_gamma   120.00000361
_symmetry_Int_Tables_number   1
_chemical_formula_structural   Tm3Co2Sn3Pd
_chemical_formula_sum   'Tm3 Co2 Sn3 Pd1'
_cell_volume   180.18377413
_cell_formula_units_Z   1
loop_
 _symmetry_equiv_pos_site_id
 _symmetry_equiv_pos_as_xyz
  1  'x, y, z'
loop_
 _atom_site_type_symbol
 _atom_site_label
 _atom_site_symmetry_multiplicity
 _atom_site_fract_x
 _atom_site_fract_y
 _atom_site_fract_z
 _atom_site_occupancy
  Tm  Tm0  1  0.014499  0.410176  0.500000  1
  Tm  Tm1  1  0.589824  0.604323  0.500000  1
  Tm  Tm2  1  0.395677  0.985501  0.500000  1
  Co  Co3  1  0.333333  0.666667  0.000000  1
  Co  Co4  1  0.000000  0.000000  0.500000  1
  Sn  Sn5  1  0.003350  0.743907  0.000000  1
  Sn  Sn6  1  0.256093  0.259442  0.000000  1
  Sn  Sn7  1  0.740558  0.996650  0.000000  1
  Pd  Pd8  1  0.666667  0.333333  0.000000  1
