# generated using pymatgen
data_EuAlZn2Ge
_symmetry_space_group_name_H-M   'P 1'
_cell_length_a   4.19674100
_cell_length_b   4.19674100
_cell_length_c   10.96478600
_cell_angle_alpha   90.00000000
_cell_angle_beta   90.00000000
_cell_angle_gamma   90.00000000
_symmetry_Int_Tables_number   1
_chemical_formula_structural   EuAlZn2Ge
_chemical_formula_sum   'Eu2 Al2 Zn4 Ge2'
_cell_volume   193.11877390
_cell_formula_units_Z   2
loop_
 _symmetry_equiv_pos_site_id
 _symmetry_equiv_pos_as_xyz
  1  'x, y, z'
loop_
 _atom_site_type_symbol
 _atom_site_label
 _atom_site_symmetry_multiplicity
 _atom_site_fract_x
 _atom_site_fract_y
 _atom_site_fract_z
 _atom_site_occupancy
  Eu  Eu0  1  0.000000  0.500000  0.256583  1
  Eu  Eu1  1  0.500000  0.000000  0.743417  1
  Al  Al2  1  0.000000  0.000000  0.000000  1
  Al  Al3  1  0.500000  0.500000  0.000000  1
  Zn  Zn4  1  0.500000  0.500000  0.500000  1
  Zn  Zn5  1  0.000000  0.000000  0.500000  1
  Zn  Zn6  1  0.500000  0.000000  0.137347  1
  Zn  Zn7  1  0.000000  0.500000  0.862653  1
  Ge  Ge8  1  0.500000  0.000000  0.363047  1
  Ge  Ge9  1  0.000000  0.500000  0.636953  1
