# generated using pymatgen
data_LiGa(PSe3)2
_symmetry_space_group_name_H-M   'P 1'
_cell_length_a   6.39287600
_cell_length_b   6.39287635
_cell_length_c   14.73661300
_cell_angle_alpha   90.00000000
_cell_angle_beta   90.00000000
_cell_angle_gamma   119.99998784
_symmetry_Int_Tables_number   1
_chemical_formula_structural   LiGa(PSe3)2
_chemical_formula_sum   'Li2 Ga2 P4 Se12'
_cell_volume   521.58002233
_cell_formula_units_Z   2
loop_
 _symmetry_equiv_pos_site_id
 _symmetry_equiv_pos_as_xyz
  1  'x, y, z'
loop_
 _atom_site_type_symbol
 _atom_site_label
 _atom_site_symmetry_multiplicity
 _atom_site_fract_x
 _atom_site_fract_y
 _atom_site_fract_z
 _atom_site_occupancy
  Li  Li0  1  0.333333  0.666667  0.750000  1
  Li  Li1  1  0.666667  0.333333  0.250000  1
  Ga  Ga2  1  0.000000  0.000000  0.250000  1
  Ga  Ga3  1  0.000000  0.000000  0.750000  1
  P  P4  1  0.666667  0.333333  0.674271  1
  P  P5  1  0.666667  0.333333  0.825729  1
  P  P6  1  0.333333  0.666667  0.325729  1
  P  P7  1  0.333333  0.666667  0.174271  1
  Se  Se8  1  0.679101  0.988636  0.134095  1
  Se  Se9  1  0.679101  0.690465  0.365905  1
  Se  Se10  1  0.309535  0.320899  0.134095  1
  Se  Se11  1  0.309535  0.988636  0.365905  1
  Se  Se12  1  0.690465  0.679101  0.865905  1
  Se  Se13  1  0.320899  0.011364  0.865905  1
  Se  Se14  1  0.988636  0.309535  0.865905  1
  Se  Se15  1  0.320899  0.309535  0.634095  1
  Se  Se16  1  0.988636  0.679101  0.634095  1
  Se  Se17  1  0.690465  0.011364  0.634095  1
  Se  Se18  1  0.011364  0.320899  0.365905  1
  Se  Se19  1  0.011364  0.690465  0.134095  1
