# generated using pymatgen
data_EuSb2PdRu
_symmetry_space_group_name_H-M   'P 1'
_cell_length_a   4.53426200
_cell_length_b   4.53426200
_cell_length_c   10.90379100
_cell_angle_alpha   90.00000000
_cell_angle_beta   90.00000000
_cell_angle_gamma   90.00000000
_symmetry_Int_Tables_number   1
_chemical_formula_structural   EuSb2PdRu
_chemical_formula_sum   'Eu2 Sb4 Pd2 Ru2'
_cell_volume   224.17683873
_cell_formula_units_Z   2
loop_
 _symmetry_equiv_pos_site_id
 _symmetry_equiv_pos_as_xyz
  1  'x, y, z'
loop_
 _atom_site_type_symbol
 _atom_site_label
 _atom_site_symmetry_multiplicity
 _atom_site_fract_x
 _atom_site_fract_y
 _atom_site_fract_z
 _atom_site_occupancy
  Eu  Eu0  1  0.500000  0.000000  0.239714  1
  Eu  Eu1  1  0.000000  0.500000  0.760286  1
  Sb  Sb2  1  0.000000  0.000000  0.500000  1
  Sb  Sb3  1  0.500000  0.500000  0.500000  1
  Sb  Sb4  1  0.500000  0.000000  0.877961  1
  Sb  Sb5  1  0.000000  0.500000  0.122039  1
  Pd  Pd6  1  0.500000  0.000000  0.636650  1
  Pd  Pd7  1  0.000000  0.500000  0.363350  1
  Ru  Ru8  1  0.000000  0.000000  0.000000  1
  Ru  Ru9  1  0.500000  0.500000  0.000000  1
