# generated using pymatgen
data_Ac2GaCu4Sn3
_symmetry_space_group_name_H-M   'P 1'
_cell_length_a   4.55969500
_cell_length_b   4.55969500
_cell_length_c   10.66572500
_cell_angle_alpha   90.00000000
_cell_angle_beta   90.00000000
_cell_angle_gamma   90.00000000
_symmetry_Int_Tables_number   1
_chemical_formula_structural   Ac2GaCu4Sn3
_chemical_formula_sum   'Ac2 Ga1 Cu4 Sn3'
_cell_volume   221.74915257
_cell_formula_units_Z   1
loop_
 _symmetry_equiv_pos_site_id
 _symmetry_equiv_pos_as_xyz
  1  'x, y, z'
loop_
 _atom_site_type_symbol
 _atom_site_label
 _atom_site_symmetry_multiplicity
 _atom_site_fract_x
 _atom_site_fract_y
 _atom_site_fract_z
 _atom_site_occupancy
  Ac  Ac0  1  0.000000  0.500000  0.245654  1
  Ac  Ac1  1  0.500000  0.000000  0.754346  1
  Ga  Ga2  1  0.000000  0.000000  0.500000  1
  Cu  Cu3  1  0.000000  0.000000  0.000000  1
  Cu  Cu4  1  0.500000  0.500000  0.000000  1
  Cu  Cu5  1  0.000000  0.500000  0.626315  1
  Cu  Cu6  1  0.500000  0.000000  0.373685  1
  Sn  Sn7  1  0.500000  0.500000  0.500000  1
  Sn  Sn8  1  0.000000  0.500000  0.872604  1
  Sn  Sn9  1  0.500000  0.000000  0.127396  1
