# generated using pymatgen
data_Eu2Cu4As3P
_symmetry_space_group_name_H-M   'P 1'
_cell_length_a   4.21414300
_cell_length_b   4.21414300
_cell_length_c   10.04612300
_cell_angle_alpha   90.00000000
_cell_angle_beta   90.00000000
_cell_angle_gamma   90.00000000
_symmetry_Int_Tables_number   1
_chemical_formula_structural   Eu2Cu4As3P
_chemical_formula_sum   'Eu2 Cu4 As3 P1'
_cell_volume   178.40911066
_cell_formula_units_Z   1
loop_
 _symmetry_equiv_pos_site_id
 _symmetry_equiv_pos_as_xyz
  1  'x, y, z'
loop_
 _atom_site_type_symbol
 _atom_site_label
 _atom_site_symmetry_multiplicity
 _atom_site_fract_x
 _atom_site_fract_y
 _atom_site_fract_z
 _atom_site_occupancy
  Eu  Eu0  1  0.000000  0.499999  0.243778  1
  Eu  Eu1  1  0.499999  0.000000  0.757431  1
  Cu  Cu2  1  0.000000  0.000000  0.008912  1
  Cu  Cu3  1  0.499999  0.499999  0.008912  1
  Cu  Cu4  1  0.499999  0.000000  0.358802  1
  Cu  Cu5  1  0.000000  0.499999  0.629563  1
  As  As6  1  0.000000  0.000000  0.496808  1
  As  As7  1  0.499999  0.499999  0.496808  1
  As  As8  1  0.000000  0.499999  0.868576  1
  P  P9  1  0.499999  0.000000  0.130411  1
