# generated using pymatgen
data_Lu3ZnSn3PtRh
_symmetry_space_group_name_H-M   'P 1'
_cell_length_a   7.39420300
_cell_length_b   7.39420356
_cell_length_c   4.03492800
_cell_angle_alpha   90.00000000
_cell_angle_beta   90.00000000
_cell_angle_gamma   120.00000196
_symmetry_Int_Tables_number   1
_chemical_formula_structural   Lu3ZnSn3PtRh
_chemical_formula_sum   'Lu3 Zn1 Sn3 Pt1 Rh1'
_cell_volume   191.05094258
_cell_formula_units_Z   1
loop_
 _symmetry_equiv_pos_site_id
 _symmetry_equiv_pos_as_xyz
  1  'x, y, z'
loop_
 _atom_site_type_symbol
 _atom_site_label
 _atom_site_symmetry_multiplicity
 _atom_site_fract_x
 _atom_site_fract_y
 _atom_site_fract_z
 _atom_site_occupancy
  Lu  Lu0  1  0.405393  0.393676  0.500000  1
  Lu  Lu1  1  0.606324  0.011717  0.500000  1
  Lu  Lu2  1  0.988283  0.594607  0.500000  1
  Zn  Zn3  1  0.333333  0.666667  0.000000  1
  Sn  Sn4  1  0.739179  0.744802  0.000000  1
  Sn  Sn5  1  0.255198  0.994377  0.000000  1
  Sn  Sn6  1  0.005623  0.260821  0.000000  1
  Pt  Pt7  1  0.666667  0.333333  0.000000  1
  Rh  Rh8  1  0.000000  0.000000  0.500000  1
