# generated using pymatgen
data_EuSnSbRh2
_symmetry_space_group_name_H-M   'P 1'
_cell_length_a   4.43740600
_cell_length_b   4.43740600
_cell_length_c   10.91018700
_cell_angle_alpha   90.00000000
_cell_angle_beta   90.00000000
_cell_angle_gamma   90.00000000
_symmetry_Int_Tables_number   1
_chemical_formula_structural   EuSnSbRh2
_chemical_formula_sum   'Eu2 Sn2 Sb2 Rh4'
_cell_volume   214.82782275
_cell_formula_units_Z   2
loop_
 _symmetry_equiv_pos_site_id
 _symmetry_equiv_pos_as_xyz
  1  'x, y, z'
loop_
 _atom_site_type_symbol
 _atom_site_label
 _atom_site_symmetry_multiplicity
 _atom_site_fract_x
 _atom_site_fract_y
 _atom_site_fract_z
 _atom_site_occupancy
  Eu  Eu0  1  0.000000  0.500000  0.749745  1
  Eu  Eu1  1  0.500000  0.000000  0.250255  1
  Sn  Sn2  1  0.000000  0.000000  0.500000  1
  Sn  Sn3  1  0.500000  0.500000  0.500000  1
  Sb  Sb4  1  0.000000  0.500000  0.130495  1
  Sb  Sb5  1  0.500000  0.000000  0.869505  1
  Rh  Rh6  1  0.000000  0.000000  0.000000  1
  Rh  Rh7  1  0.500000  0.500000  0.000000  1
  Rh  Rh8  1  0.000000  0.500000  0.365148  1
  Rh  Rh9  1  0.500000  0.000000  0.634852  1
