# generated using pymatgen
data_Te16W
_symmetry_space_group_name_H-M   'P 1'
_cell_length_a   7.81446104
_cell_length_b   7.81446033
_cell_length_c   12.97229227
_cell_angle_alpha   57.29900355
_cell_angle_beta   57.29900616
_cell_angle_gamma   67.13613528
_symmetry_Int_Tables_number   1
_chemical_formula_structural   Te16W
_chemical_formula_sum   'Te16 W1'
_cell_volume   555.69897608
_cell_formula_units_Z   1
loop_
 _symmetry_equiv_pos_site_id
 _symmetry_equiv_pos_as_xyz
  1  'x, y, z'
loop_
 _atom_site_type_symbol
 _atom_site_label
 _atom_site_symmetry_multiplicity
 _atom_site_fract_x
 _atom_site_fract_y
 _atom_site_fract_z
 _atom_site_occupancy
  Te  Te0  1  0.807533  0.807533  0.896961  1
  Te  Te1  1  0.347063  0.347063  0.868367  1
  Te  Te2  1  0.664166  0.148940  0.123204  1
  Te  Te3  1  0.148940  0.664166  0.123204  1
  Te  Te4  1  0.019192  0.019192  0.341020  1
  Te  Te5  1  0.458073  0.458073  0.377339  1
  Te  Te6  1  0.528450  0.075660  0.615521  1
  Te  Te7  1  0.075660  0.528450  0.615521  1
  Te  Te8  1  0.232506  0.232506  0.373585  1
  Te  Te9  1  0.735586  0.735586  0.358253  1
  Te  Te10  1  0.316806  0.763766  0.641398  1
  Te  Te11  1  0.763766  0.316806  0.641398  1
  Te  Te12  1  0.048112  0.048112  0.919864  1
  Te  Te13  1  0.602593  0.602593  0.849834  1
  Te  Te14  1  0.414765  0.898081  0.117431  1
  Te  Te15  1  0.898081  0.414765  0.117431  1
  W  W16  1  0.750005  0.750005  0.554069  1
