# generated using pymatgen
data_Ac3Ag3Bi4
_symmetry_space_group_name_H-M   'P 1'
_cell_length_a   9.26985911
_cell_length_b   9.26985818
_cell_length_c   9.26985900
_cell_angle_alpha   109.47122244
_cell_angle_beta   109.47122039
_cell_angle_gamma   109.47121366
_symmetry_Int_Tables_number   1
_chemical_formula_structural   Ac3Ag3Bi4
_chemical_formula_sum   'Ac6 Ag6 Bi8'
_cell_volume   613.19342565
_cell_formula_units_Z   2
loop_
 _symmetry_equiv_pos_site_id
 _symmetry_equiv_pos_as_xyz
  1  'x, y, z'
loop_
 _atom_site_type_symbol
 _atom_site_label
 _atom_site_symmetry_multiplicity
 _atom_site_fract_x
 _atom_site_fract_y
 _atom_site_fract_z
 _atom_site_occupancy
  Ac  Ac0  1  0.125000  0.875000  0.250000  1
  Ac  Ac1  1  0.375000  0.625000  0.750000  1
  Ac  Ac2  1  0.875000  0.250000  0.125000  1
  Ac  Ac3  1  0.625000  0.750000  0.375000  1
  Ac  Ac4  1  0.250000  0.125000  0.875000  1
  Ac  Ac5  1  0.750000  0.375000  0.625000  1
  Ag  Ag6  1  0.625000  0.375000  0.250000  1
  Ag  Ag7  1  0.875000  0.125000  0.750000  1
  Ag  Ag8  1  0.375000  0.250000  0.625000  1
  Ag  Ag9  1  0.125000  0.750000  0.875000  1
  Ag  Ag10  1  0.250000  0.625000  0.375000  1
  Ag  Ag11  1  0.750000  0.875000  0.125000  1
  Bi  Bi12  1  0.333287  0.333287  0.333287  1
  Bi  Bi13  1  0.166713  0.500000  0.000000  1
  Bi  Bi14  1  0.000000  0.166713  0.500000  1
  Bi  Bi15  1  0.833287  0.833287  0.833287  1
  Bi  Bi16  1  0.500000  0.000000  0.166713  1
  Bi  Bi17  1  0.666713  0.500000  0.000000  1
  Bi  Bi18  1  0.500000  0.000000  0.666713  1
  Bi  Bi19  1  0.000000  0.666713  0.500000  1
