# generated using pymatgen
data_Tb6Y4InBi5
_symmetry_space_group_name_H-M   'P 1'
_cell_length_a   9.14228200
_cell_length_b   9.14228056
_cell_length_c   6.43738300
_cell_angle_alpha   90.00000000
_cell_angle_beta   90.00000000
_cell_angle_gamma   119.77926463
_symmetry_Int_Tables_number   1
_chemical_formula_structural   Tb6Y4InBi5
_chemical_formula_sum   'Tb6 Y4 In1 Bi5'
_cell_volume   466.99350287
_cell_formula_units_Z   1
loop_
 _symmetry_equiv_pos_site_id
 _symmetry_equiv_pos_as_xyz
  1  'x, y, z'
loop_
 _atom_site_type_symbol
 _atom_site_label
 _atom_site_symmetry_multiplicity
 _atom_site_fract_x
 _atom_site_fract_y
 _atom_site_fract_z
 _atom_site_occupancy
  Tb  Tb0  1  0.663311  0.334563  0.998256  1
  Tb  Tb1  1  0.334563  0.663311  0.998256  1
  Tb  Tb2  1  0.334563  0.663311  0.501744  1
  Tb  Tb3  1  0.663311  0.334563  0.501744  1
  Tb  Tb4  1  0.758096  0.999510  0.250000  1
  Tb  Tb5  1  0.999510  0.758096  0.250000  1
  Y  Y6  1  0.755109  0.755109  0.750000  1
  Y  Y7  1  0.242124  0.006439  0.750000  1
  Y  Y8  1  0.006439  0.242124  0.750000  1
  Y  Y9  1  0.239223  0.239223  0.250000  1
  In  In10  1  0.394149  0.394149  0.750000  1
  Bi  Bi11  1  0.610901  0.001937  0.750000  1
  Bi  Bi12  1  0.001937  0.610901  0.750000  1
  Bi  Bi13  1  0.608435  0.608435  0.250000  1
  Bi  Bi14  1  0.390668  0.997661  0.250000  1
  Bi  Bi15  1  0.997661  0.390668  0.250000  1
