# generated using pymatgen
data_Pr5Bi3As
_symmetry_space_group_name_H-M   'P 1'
_cell_length_a   9.74246200
_cell_length_b   9.74246149
_cell_length_c   6.76266100
_cell_angle_alpha   90.00000000
_cell_angle_beta   90.00000000
_cell_angle_gamma   120.00000173
_symmetry_Int_Tables_number   1
_chemical_formula_structural   Pr5Bi3As
_chemical_formula_sum   'Pr10 Bi6 As2'
_cell_volume   555.88590223
_cell_formula_units_Z   2
loop_
 _symmetry_equiv_pos_site_id
 _symmetry_equiv_pos_as_xyz
  1  'x, y, z'
loop_
 _atom_site_type_symbol
 _atom_site_label
 _atom_site_symmetry_multiplicity
 _atom_site_fract_x
 _atom_site_fract_y
 _atom_site_fract_z
 _atom_site_occupancy
  Pr  Pr0  1  0.666667  0.333333  0.000000  1
  Pr  Pr1  1  0.333333  0.666667  0.000000  1
  Pr  Pr2  1  0.333333  0.666667  0.500000  1
  Pr  Pr3  1  0.666667  0.333333  0.500000  1
  Pr  Pr4  1  0.748906  0.748906  0.750000  1
  Pr  Pr5  1  0.251094  0.000000  0.750000  1
  Pr  Pr6  1  0.000000  0.251094  0.750000  1
  Pr  Pr7  1  0.251094  0.251094  0.250000  1
  Pr  Pr8  1  0.748906  0.000000  0.250000  1
  Pr  Pr9  1  0.000000  0.748906  0.250000  1
  Bi  Bi10  1  0.392281  0.392281  0.750000  1
  Bi  Bi11  1  0.607719  0.000000  0.750000  1
  Bi  Bi12  1  0.000000  0.607719  0.750000  1
  Bi  Bi13  1  0.607719  0.607719  0.250000  1
  Bi  Bi14  1  0.392281  0.000000  0.250000  1
  Bi  Bi15  1  0.000000  0.392281  0.250000  1
  As  As16  1  0.000000  0.000000  0.000000  1
  As  As17  1  0.000000  0.000000  0.500000  1
