# generated using pymatgen
data_CaSc(Cu2P)4
_symmetry_space_group_name_H-M   'P 1'
_cell_length_a   7.19462018
_cell_length_b   7.19462018
_cell_length_c   3.76030700
_cell_angle_alpha   90.00000000
_cell_angle_beta   90.00000000
_cell_angle_gamma   89.01057792
_symmetry_Int_Tables_number   1
_chemical_formula_structural   CaSc(Cu2P)4
_chemical_formula_sum   'Ca1 Sc1 Cu8 P4'
_cell_volume   194.61409393
_cell_formula_units_Z   1
loop_
 _symmetry_equiv_pos_site_id
 _symmetry_equiv_pos_as_xyz
  1  'x, y, z'
loop_
 _atom_site_type_symbol
 _atom_site_label
 _atom_site_symmetry_multiplicity
 _atom_site_fract_x
 _atom_site_fract_y
 _atom_site_fract_z
 _atom_site_occupancy
  Ca  Ca0  1  0.500000  0.500000  0.500000  1
  Sc  Sc1  1  0.000000  0.000000  0.000000  1
  Cu  Cu2  1  0.667115  0.916979  0.500000  1
  Cu  Cu3  1  0.161539  0.586227  0.000000  1
  Cu  Cu4  1  0.413773  0.838461  0.000000  1
  Cu  Cu5  1  0.916979  0.667115  0.500000  1
  Cu  Cu6  1  0.838461  0.413773  0.000000  1
  Cu  Cu7  1  0.586227  0.161539  0.000000  1
  Cu  Cu8  1  0.083021  0.332885  0.500000  1
  Cu  Cu9  1  0.332885  0.083021  0.500000  1
  P  P10  1  0.277158  0.277158  0.000000  1
  P  P11  1  0.722842  0.722842  0.000000  1
  P  P12  1  0.792161  0.207839  0.500000  1
  P  P13  1  0.207839  0.792161  0.500000  1
