# generated using pymatgen
data_Lu3In3BiIr2
_symmetry_space_group_name_H-M   'P 1'
_cell_length_a   7.69750900
_cell_length_b   7.69751169
_cell_length_c   4.00136300
_cell_angle_alpha   90.00000000
_cell_angle_beta   90.00000000
_cell_angle_gamma   120.00000994
_symmetry_Int_Tables_number   1
_chemical_formula_structural   Lu3In3BiIr2
_chemical_formula_sum   'Lu3 In3 Bi1 Ir2'
_cell_volume   205.32370981
_cell_formula_units_Z   1
loop_
 _symmetry_equiv_pos_site_id
 _symmetry_equiv_pos_as_xyz
  1  'x, y, z'
loop_
 _atom_site_type_symbol
 _atom_site_label
 _atom_site_symmetry_multiplicity
 _atom_site_fract_x
 _atom_site_fract_y
 _atom_site_fract_z
 _atom_site_occupancy
  Lu  Lu0  1  0.418562  0.384854  0.000000  1
  Lu  Lu1  1  0.615146  0.033709  0.000000  1
  Lu  Lu2  1  0.966291  0.581438  0.000000  1
  In  In3  1  0.978825  0.237514  0.500000  1
  In  In4  1  0.762486  0.741312  0.500000  1
  In  In5  1  0.258688  0.021175  0.500000  1
  Bi  Bi6  1  0.333333  0.666667  0.500000  1
  Ir  Ir7  1  0.000000  0.000000  0.000000  1
  Ir  Ir8  1  0.666667  0.333333  0.500000  1
