# generated using pymatgen
data_Ac3Tm(ZnSn)4
_symmetry_space_group_name_H-M   'P 1'
_cell_length_a   4.63965700
_cell_length_b   4.63965653
_cell_length_c   17.55544900
_cell_angle_alpha   90.00000000
_cell_angle_beta   90.00000000
_cell_angle_gamma   120.00001045
_symmetry_Int_Tables_number   1
_chemical_formula_structural   Ac3Tm(ZnSn)4
_chemical_formula_sum   'Ac3 Tm1 Zn4 Sn4'
_cell_volume   327.27605715
_cell_formula_units_Z   1
loop_
 _symmetry_equiv_pos_site_id
 _symmetry_equiv_pos_as_xyz
  1  'x, y, z'
loop_
 _atom_site_type_symbol
 _atom_site_label
 _atom_site_symmetry_multiplicity
 _atom_site_fract_x
 _atom_site_fract_y
 _atom_site_fract_z
 _atom_site_occupancy
  Ac  Ac0  1  0.000000  0.000000  0.250000  1
  Ac  Ac1  1  0.000000  0.000000  0.989469  1
  Ac  Ac2  1  0.000000  0.000000  0.510531  1
  Tm  Tm3  1  0.000000  0.000000  0.750000  1
  Zn  Zn4  1  0.333333  0.666667  0.148363  1
  Zn  Zn5  1  0.666667  0.333333  0.826751  1
  Zn  Zn6  1  0.666667  0.333333  0.673249  1
  Zn  Zn7  1  0.333333  0.666667  0.351637  1
  Sn  Sn8  1  0.333333  0.666667  0.629844  1
  Sn  Sn9  1  0.666667  0.333333  0.386790  1
  Sn  Sn10  1  0.666667  0.333333  0.113210  1
  Sn  Sn11  1  0.333333  0.666667  0.870156  1
