# generated using pymatgen
data_YErHf3Co9As7
_symmetry_space_group_name_H-M   'P 1'
_cell_length_a   3.80388100
_cell_length_b   9.67969048
_cell_length_c   9.67969100
_cell_angle_alpha   119.99999834
_cell_angle_beta   90.00000000
_cell_angle_gamma   90.00000000
_symmetry_Int_Tables_number   1
_chemical_formula_structural   YErHf3Co9As7
_chemical_formula_sum   'Y1 Er1 Hf3 Co9 As7'
_cell_volume   308.66012335
_cell_formula_units_Z   1
loop_
 _symmetry_equiv_pos_site_id
 _symmetry_equiv_pos_as_xyz
  1  'x, y, z'
loop_
 _atom_site_type_symbol
 _atom_site_label
 _atom_site_symmetry_multiplicity
 _atom_site_fract_x
 _atom_site_fract_y
 _atom_site_fract_z
 _atom_site_occupancy
  Y  Y0  1  0.500000  0.333333  0.666667  1
  Er  Er1  1  0.000000  0.666667  0.333333  1
  Hf  Hf2  1  0.500000  0.768682  0.888098  1
  Hf  Hf3  1  0.500000  0.119415  0.231318  1
  Hf  Hf4  1  0.500000  0.111902  0.880585  1
  Co  Co5  1  0.000000  0.577320  0.935957  1
  Co  Co6  1  0.000000  0.358637  0.422680  1
  Co  Co7  1  0.000000  0.064043  0.641363  1
  Co  Co8  1  0.000000  0.878342  0.163051  1
  Co  Co9  1  0.000000  0.284709  0.121658  1
  Co  Co10  1  0.000000  0.836949  0.715291  1
  Co  Co11  1  0.500000  0.947842  0.390558  1
  Co  Co12  1  0.500000  0.442715  0.052158  1
  Co  Co13  1  0.500000  0.609442  0.557285  1
  As  As14  1  0.000000  0.000000  0.000000  1
  As  As15  1  0.500000  0.712993  0.133427  1
  As  As16  1  0.500000  0.420434  0.287007  1
  As  As17  1  0.500000  0.866573  0.579566  1
  As  As18  1  0.000000  0.572754  0.681308  1
  As  As19  1  0.000000  0.108554  0.427246  1
  As  As20  1  0.000000  0.318692  0.891446  1
