# generated using pymatgen
data_NbTe4Au3
_symmetry_space_group_name_H-M   'P 1'
_cell_length_a   6.35293200
_cell_length_b   6.35293200
_cell_length_c   6.35293200
_cell_angle_alpha   90.00000000
_cell_angle_beta   90.00000000
_cell_angle_gamma   90.00000000
_symmetry_Int_Tables_number   1
_chemical_formula_structural   NbTe4Au3
_chemical_formula_sum   'Nb1 Te4 Au3'
_cell_volume   256.40271550
_cell_formula_units_Z   1
loop_
 _symmetry_equiv_pos_site_id
 _symmetry_equiv_pos_as_xyz
  1  'x, y, z'
loop_
 _atom_site_type_symbol
 _atom_site_label
 _atom_site_symmetry_multiplicity
 _atom_site_fract_x
 _atom_site_fract_y
 _atom_site_fract_z
 _atom_site_occupancy
  Nb  Nb0  1  0.000000  0.000000  0.000000  1
  Te  Te1  1  0.751181  0.751181  0.248819  1
  Te  Te2  1  0.751181  0.248819  0.751181  1
  Te  Te3  1  0.248819  0.751181  0.751181  1
  Te  Te4  1  0.248819  0.248819  0.248819  1
  Au  Au5  1  0.000000  0.000000  0.500000  1
  Au  Au6  1  0.000000  0.500000  0.000000  1
  Au  Au7  1  0.500000  0.000000  0.000000  1
