# generated using pymatgen
data_AcY(CdSn)2
_symmetry_space_group_name_H-M   'P 1'
_cell_length_a   4.81321000
_cell_length_b   4.81320888
_cell_length_c   17.15906500
_cell_angle_alpha   90.00000000
_cell_angle_beta   90.00000000
_cell_angle_gamma   119.99998018
_symmetry_Int_Tables_number   1
_chemical_formula_structural   AcY(CdSn)2
_chemical_formula_sum   'Ac2 Y2 Cd4 Sn4'
_cell_volume   344.26578143
_cell_formula_units_Z   2
loop_
 _symmetry_equiv_pos_site_id
 _symmetry_equiv_pos_as_xyz
  1  'x, y, z'
loop_
 _atom_site_type_symbol
 _atom_site_label
 _atom_site_symmetry_multiplicity
 _atom_site_fract_x
 _atom_site_fract_y
 _atom_site_fract_z
 _atom_site_occupancy
  Ac  Ac0  1  0.000000  0.000000  0.500000  1
  Ac  Ac1  1  0.000000  0.000000  0.000000  1
  Y  Y2  1  0.000000  0.000000  0.750000  1
  Y  Y3  1  0.000000  0.000000  0.250000  1
  Cd  Cd4  1  0.666667  0.333333  0.837321  1
  Cd  Cd5  1  0.666667  0.333333  0.662679  1
  Cd  Cd6  1  0.333333  0.666667  0.162679  1
  Cd  Cd7  1  0.333333  0.666667  0.337321  1
  Sn  Sn8  1  0.666667  0.333333  0.118426  1
  Sn  Sn9  1  0.666667  0.333333  0.381574  1
  Sn  Sn10  1  0.333333  0.666667  0.881574  1
  Sn  Sn11  1  0.333333  0.666667  0.618426  1
