# generated using pymatgen
data_Tm2Lu(CoSn2)2
_symmetry_space_group_name_H-M   'P 1'
_cell_length_a   7.35756289
_cell_length_b   7.36337542
_cell_length_c   4.07290600
_cell_angle_alpha   90.00000000
_cell_angle_beta   90.00000000
_cell_angle_gamma   120.05605622
_symmetry_Int_Tables_number   1
_chemical_formula_structural   Tm2Lu(CoSn2)2
_chemical_formula_sum   'Tm2 Lu1 Co2 Sn4'
_cell_volume   190.98548085
_cell_formula_units_Z   1
loop_
 _symmetry_equiv_pos_site_id
 _symmetry_equiv_pos_as_xyz
  1  'x, y, z'
loop_
 _atom_site_type_symbol
 _atom_site_label
 _atom_site_symmetry_multiplicity
 _atom_site_fract_x
 _atom_site_fract_y
 _atom_site_fract_z
 _atom_site_occupancy
  Tm  Tm0  1  0.751275  0.058214  0.500000  1
  Tm  Tm1  1  0.942078  0.693191  0.500000  1
  Lu  Lu2  1  0.306005  0.248709  0.500000  1
  Co  Co3  1  0.333416  0.666193  0.500000  1
  Co  Co4  1  0.000748  0.000536  0.000000  1
  Sn  Sn5  1  0.098999  0.408341  0.000000  1
  Sn  Sn6  1  0.591420  0.689998  0.000000  1
  Sn  Sn7  1  0.310051  0.901688  0.000000  1
  Sn  Sn8  1  0.666006  0.333132  0.000000  1
