# generated using pymatgen
data_Nd9Lu(SnSb)4
_symmetry_space_group_name_H-M   'P 1'
_cell_length_a   8.98298471
_cell_length_b   8.98298568
_cell_length_c   8.43260300
_cell_angle_alpha   89.85017460
_cell_angle_beta   89.85017459
_cell_angle_gamma   124.85298515
_symmetry_Int_Tables_number   1
_chemical_formula_structural   Nd9Lu(SnSb)4
_chemical_formula_sum   'Nd9 Lu1 Sn4 Sb4'
_cell_volume   558.39145311
_cell_formula_units_Z   1
loop_
 _symmetry_equiv_pos_site_id
 _symmetry_equiv_pos_as_xyz
  1  'x, y, z'
loop_
 _atom_site_type_symbol
 _atom_site_label
 _atom_site_symmetry_multiplicity
 _atom_site_fract_x
 _atom_site_fract_y
 _atom_site_fract_z
 _atom_site_occupancy
  Nd  Nd0  1  0.031355  0.308333  0.335849  1
  Nd  Nd1  1  0.968645  0.691667  0.664151  1
  Nd  Nd2  1  0.468093  0.194686  0.834861  1
  Nd  Nd3  1  0.805314  0.531907  0.165139  1
  Nd  Nd4  1  0.531907  0.805314  0.165139  1
  Nd  Nd5  1  0.194686  0.468093  0.834861  1
  Nd  Nd6  1  0.691667  0.968645  0.664151  1
  Nd  Nd7  1  0.308333  0.031355  0.335849  1
  Nd  Nd8  1  0.000000  0.000000  0.000000  1
  Lu  Lu9  1  0.500000  0.500000  0.500000  1
  Sn  Sn10  1  0.369912  0.369912  0.134182  1
  Sn  Sn11  1  0.630088  0.630088  0.865818  1
  Sn  Sn12  1  0.134397  0.134397  0.628332  1
  Sn  Sn13  1  0.865603  0.865603  0.371668  1
  Sb  Sb14  1  0.797193  0.202807  0.000000  1
  Sb  Sb15  1  0.202807  0.797193  0.000000  1
  Sb  Sb16  1  0.697475  0.302525  0.500000  1
  Sb  Sb17  1  0.302525  0.697475  0.500000  1
