# generated using pymatgen
data_Pr2ThPaBi5
_symmetry_space_group_name_H-M   'P 1'
_cell_length_a   9.95768925
_cell_length_b   9.96155775
_cell_length_c   6.50241200
_cell_angle_alpha   90.00000000
_cell_angle_beta   90.00000000
_cell_angle_gamma   120.01284934
_symmetry_Int_Tables_number   1
_chemical_formula_structural   Pr2ThPaBi5
_chemical_formula_sum   'Pr4 Th2 Pa2 Bi10'
_cell_volume   558.51481153
_cell_formula_units_Z   2
loop_
 _symmetry_equiv_pos_site_id
 _symmetry_equiv_pos_as_xyz
  1  'x, y, z'
loop_
 _atom_site_type_symbol
 _atom_site_label
 _atom_site_symmetry_multiplicity
 _atom_site_fract_x
 _atom_site_fract_y
 _atom_site_fract_z
 _atom_site_occupancy
  Pr  Pr0  1  0.617577  0.999748  0.250000  1
  Pr  Pr1  1  0.000000  0.382470  0.750000  1
  Pr  Pr2  1  0.382423  0.382172  0.250000  1
  Pr  Pr3  1  0.000000  0.615084  0.250000  1
  Th  Th4  1  0.617611  0.617915  0.750000  1
  Th  Th5  1  0.382389  0.000304  0.750000  1
  Pa  Pa6  1  0.000000  0.000417  0.000943  1
  Pa  Pa7  1  0.000000  0.000417  0.499057  1
  Bi  Bi8  1  0.278317  0.999435  0.250000  1
  Bi  Bi9  1  0.000000  0.276491  0.250000  1
  Bi  Bi10  1  0.000000  0.723829  0.750000  1
  Bi  Bi11  1  0.335195  0.668621  0.502194  1
  Bi  Bi12  1  0.335195  0.668621  0.997806  1
  Bi  Bi13  1  0.277592  0.277050  0.750000  1
  Bi  Bi14  1  0.664805  0.333425  0.502194  1
  Bi  Bi15  1  0.721683  0.721118  0.250000  1
  Bi  Bi16  1  0.722408  0.999458  0.750000  1
  Bi  Bi17  1  0.664805  0.333425  0.997806  1
