# generated using pymatgen
data_Sr2Al3Ga4Ag
_symmetry_space_group_name_H-M   'P 1'
_cell_length_a   4.31059500
_cell_length_b   4.31406400
_cell_length_c   11.67283300
_cell_angle_alpha   90.00000000
_cell_angle_beta   90.00000000
_cell_angle_gamma   90.00000000
_symmetry_Int_Tables_number   1
_chemical_formula_structural   Sr2Al3Ga4Ag
_chemical_formula_sum   'Sr2 Al3 Ga4 Ag1'
_cell_volume   217.07013519
_cell_formula_units_Z   1
loop_
 _symmetry_equiv_pos_site_id
 _symmetry_equiv_pos_as_xyz
  1  'x, y, z'
loop_
 _atom_site_type_symbol
 _atom_site_label
 _atom_site_symmetry_multiplicity
 _atom_site_fract_x
 _atom_site_fract_y
 _atom_site_fract_z
 _atom_site_occupancy
  Sr  Sr0  1  0.000000  0.000000  0.994409  1
  Sr  Sr1  1  0.500000  0.500000  0.501379  1
  Al  Al2  1  0.000000  0.500000  0.254832  1
  Al  Al3  1  0.500000  0.000000  0.746682  1
  Al  Al4  1  0.500000  0.000000  0.254562  1
  Ga  Ga5  1  0.000000  0.500000  0.746433  1
  Ga  Ga6  1  0.000000  0.000000  0.611942  1
  Ga  Ga7  1  0.000000  0.000000  0.389850  1
  Ga  Ga8  1  0.500000  0.500000  0.883366  1
  Ag  Ag9  1  0.500000  0.500000  0.116545  1
