# generated using pymatgen
data_DyLu(AgSn)2
_symmetry_space_group_name_H-M   'P 1'
_cell_length_a   4.72520600
_cell_length_b   4.72520662
_cell_length_c   7.32871500
_cell_angle_alpha   90.00000000
_cell_angle_beta   90.00000000
_cell_angle_gamma   120.00002363
_symmetry_Int_Tables_number   1
_chemical_formula_structural   DyLu(AgSn)2
_chemical_formula_sum   'Dy1 Lu1 Ag2 Sn2'
_cell_volume   141.70980886
_cell_formula_units_Z   1
loop_
 _symmetry_equiv_pos_site_id
 _symmetry_equiv_pos_as_xyz
  1  'x, y, z'
loop_
 _atom_site_type_symbol
 _atom_site_label
 _atom_site_symmetry_multiplicity
 _atom_site_fract_x
 _atom_site_fract_y
 _atom_site_fract_z
 _atom_site_occupancy
  Dy  Dy0  1  0.000000  0.000000  0.224540  1
  Lu  Lu1  1  0.000000  0.000000  0.723581  1
  Ag  Ag2  1  0.666667  0.333333  0.541177  1
  Ag  Ag3  1  0.333333  0.666667  0.034685  1
  Sn  Sn4  1  0.333333  0.666667  0.447764  1
  Sn  Sn5  1  0.666667  0.333333  0.944253  1
