# generated using pymatgen
data_Yb3Mg2CdPb3
_symmetry_space_group_name_H-M   'P 1'
_cell_length_a   7.74505003
_cell_length_b   7.72344698
_cell_length_c   4.80969600
_cell_angle_alpha   90.00000000
_cell_angle_beta   90.00000000
_cell_angle_gamma   119.90777683
_symmetry_Int_Tables_number   1
_chemical_formula_structural   Yb3Mg2CdPb3
_chemical_formula_sum   'Yb3 Mg2 Cd1 Pb3'
_cell_volume   249.39428523
_cell_formula_units_Z   1
loop_
 _symmetry_equiv_pos_site_id
 _symmetry_equiv_pos_as_xyz
  1  'x, y, z'
loop_
 _atom_site_type_symbol
 _atom_site_label
 _atom_site_symmetry_multiplicity
 _atom_site_fract_x
 _atom_site_fract_y
 _atom_site_fract_z
 _atom_site_occupancy
  Yb  Yb0  1  0.425057  0.427038  0.500000  1
  Yb  Yb1  1  0.574943  0.001981  0.500000  1
  Yb  Yb2  1  0.000000  0.565285  0.500000  1
  Mg  Mg3  1  0.754310  0.755383  0.000000  1
  Mg  Mg4  1  0.245690  0.001072  0.000000  1
  Cd  Cd5  1  0.000000  0.250019  0.000000  1
  Pb  Pb6  1  0.661674  0.333712  0.000000  1
  Pb  Pb7  1  0.338326  0.672039  0.000000  1
  Pb  Pb8  1  0.000000  0.993470  0.500000  1
