# generated using pymatgen
data_LaNiSbAsRh
_symmetry_space_group_name_H-M   'P 1'
_cell_length_a   4.41462500
_cell_length_b   4.41462500
_cell_length_c   10.05377000
_cell_angle_alpha   90.00000000
_cell_angle_beta   90.00000000
_cell_angle_gamma   90.00000000
_symmetry_Int_Tables_number   1
_chemical_formula_structural   LaNiSbAsRh
_chemical_formula_sum   'La2 Ni2 Sb2 As2 Rh2'
_cell_volume   195.93705781
_cell_formula_units_Z   2
loop_
 _symmetry_equiv_pos_site_id
 _symmetry_equiv_pos_as_xyz
  1  'x, y, z'
loop_
 _atom_site_type_symbol
 _atom_site_label
 _atom_site_symmetry_multiplicity
 _atom_site_fract_x
 _atom_site_fract_y
 _atom_site_fract_z
 _atom_site_occupancy
  La  La0  1  0.000000  0.500000  0.268728  1
  La  La1  1  0.500000  0.000000  0.731272  1
  Ni  Ni2  1  0.000000  0.500000  0.599708  1
  Ni  Ni3  1  0.500000  0.000000  0.400292  1
  Sb  Sb4  1  0.000000  0.500000  0.852845  1
  Sb  Sb5  1  0.500000  0.000000  0.147155  1
  As  As6  1  0.000000  0.000000  0.500000  1
  As  As7  1  0.500000  0.500000  0.500000  1
  Rh  Rh8  1  0.000000  0.000000  0.000000  1
  Rh  Rh9  1  0.500000  0.500000  0.000000  1
