# generated using pymatgen
data_LuHfBiRh5
_symmetry_space_group_name_H-M   'P 1'
_cell_length_a   4.18642000
_cell_length_b   5.75150044
_cell_length_c   11.30254973
_cell_angle_alpha   89.89481047
_cell_angle_beta   90.00000000
_cell_angle_gamma   90.00000000
_symmetry_Int_Tables_number   1
_chemical_formula_structural   LuHfBiRh5
_chemical_formula_sum   'Lu2 Hf2 Bi2 Rh10'
_cell_volume   272.14455437
_cell_formula_units_Z   2
loop_
 _symmetry_equiv_pos_site_id
 _symmetry_equiv_pos_as_xyz
  1  'x, y, z'
loop_
 _atom_site_type_symbol
 _atom_site_label
 _atom_site_symmetry_multiplicity
 _atom_site_fract_x
 _atom_site_fract_y
 _atom_site_fract_z
 _atom_site_occupancy
  Lu  Lu0  1  0.500000  0.182738  0.642503  1
  Lu  Lu1  1  0.500000  0.817262  0.357497  1
  Hf  Hf2  1  0.500000  0.678007  0.856257  1
  Hf  Hf3  1  0.500000  0.321993  0.143743  1
  Bi  Bi4  1  0.000000  0.500000  0.500000  1
  Bi  Bi5  1  0.000000  0.000000  0.000000  1
  Rh  Rh6  1  0.500000  0.214021  0.889181  1
  Rh  Rh7  1  0.500000  0.785979  0.110819  1
  Rh  Rh8  1  0.500000  0.705512  0.621770  1
  Rh  Rh9  1  0.500000  0.294488  0.378230  1
  Rh  Rh10  1  0.000000  0.446963  0.754384  1
  Rh  Rh11  1  0.000000  0.553037  0.245616  1
  Rh  Rh12  1  0.000000  0.000000  0.500000  1
  Rh  Rh13  1  0.000000  0.500000  0.000000  1
  Rh  Rh14  1  0.000000  0.061659  0.244406  1
  Rh  Rh15  1  0.000000  0.938341  0.755594  1
