# generated using pymatgen
data_ErTaNb5Sn6
_symmetry_space_group_name_H-M   'P 1'
_cell_length_a   5.81011009
_cell_length_b   5.81191076
_cell_length_c   9.58025500
_cell_angle_alpha   90.00000000
_cell_angle_beta   90.00000000
_cell_angle_gamma   120.01025307
_symmetry_Int_Tables_number   1
_chemical_formula_structural   ErTaNb5Sn6
_chemical_formula_sum   'Er1 Ta1 Nb5 Sn6'
_cell_volume   280.13419194
_cell_formula_units_Z   1
loop_
 _symmetry_equiv_pos_site_id
 _symmetry_equiv_pos_as_xyz
  1  'x, y, z'
loop_
 _atom_site_type_symbol
 _atom_site_label
 _atom_site_symmetry_multiplicity
 _atom_site_fract_x
 _atom_site_fract_y
 _atom_site_fract_z
 _atom_site_occupancy
  Er  Er0  1  0.000000  0.000000  0.000111  1
  Ta  Ta1  1  0.000000  0.500000  0.249012  1
  Nb  Nb2  1  0.500000  0.500000  0.750775  1
  Nb  Nb3  1  0.500000  0.000000  0.750775  1
  Nb  Nb4  1  0.000000  0.500000  0.750727  1
  Nb  Nb5  1  0.500000  0.500000  0.249170  1
  Nb  Nb6  1  0.500000  0.000000  0.249170  1
  Sn  Sn7  1  0.666624  0.333312  0.999948  1
  Sn  Sn8  1  0.333376  0.666688  0.999948  1
  Sn  Sn9  1  0.666787  0.333393  0.499895  1
  Sn  Sn10  1  0.333213  0.666607  0.499895  1
  Sn  Sn11  1  0.000000  0.000000  0.670013  1
  Sn  Sn12  1  0.000000  0.000000  0.330561  1
