# generated using pymatgen
data_Y2Cu7P4Pd
_symmetry_space_group_name_H-M   'P 1'
_cell_length_a   7.28061300
_cell_length_b   7.31318101
_cell_length_c   3.82187300
_cell_angle_alpha   90.00000000
_cell_angle_beta   90.00000000
_cell_angle_gamma   90.23595503
_symmetry_Int_Tables_number   1
_chemical_formula_structural   Y2Cu7P4Pd
_chemical_formula_sum   'Y2 Cu7 P4 Pd1'
_cell_volume   203.49176497
_cell_formula_units_Z   1
loop_
 _symmetry_equiv_pos_site_id
 _symmetry_equiv_pos_as_xyz
  1  'x, y, z'
loop_
 _atom_site_type_symbol
 _atom_site_label
 _atom_site_symmetry_multiplicity
 _atom_site_fract_x
 _atom_site_fract_y
 _atom_site_fract_z
 _atom_site_occupancy
  Y  Y0  1  0.998162  0.000126  0.000000  1
  Y  Y1  1  0.500625  0.500852  0.500000  1
  Cu  Cu2  1  0.163601  0.583179  0.000000  1
  Cu  Cu3  1  0.409229  0.834554  0.000000  1
  Cu  Cu4  1  0.922600  0.655932  0.500000  1
  Cu  Cu5  1  0.836505  0.415993  0.000000  1
  Cu  Cu6  1  0.582795  0.167575  0.000000  1
  Cu  Cu7  1  0.085253  0.334854  0.500000  1
  Cu  Cu8  1  0.331400  0.086815  0.500000  1
  P  P9  1  0.284975  0.286413  0.000000  1
  P  P10  1  0.716129  0.708982  0.000000  1
  P  P11  1  0.786235  0.223728  0.500000  1
  P  P12  1  0.215611  0.786976  0.500000  1
  Pd  Pd13  1  0.666882  0.914020  0.500000  1
