# generated using pymatgen
data_HoTm(AgTe2)2
_symmetry_space_group_name_H-M   'P 1'
_cell_length_a   7.09057676
_cell_length_b   7.09057676
_cell_length_c   4.69533100
_cell_angle_alpha   90.00000000
_cell_angle_beta   90.00000000
_cell_angle_gamma   90.05292762
_symmetry_Int_Tables_number   1
_chemical_formula_structural   HoTm(AgTe2)2
_chemical_formula_sum   'Ho1 Tm1 Ag2 Te4'
_cell_volume   236.06366940
_cell_formula_units_Z   1
loop_
 _symmetry_equiv_pos_site_id
 _symmetry_equiv_pos_as_xyz
  1  'x, y, z'
loop_
 _atom_site_type_symbol
 _atom_site_label
 _atom_site_symmetry_multiplicity
 _atom_site_fract_x
 _atom_site_fract_y
 _atom_site_fract_z
 _atom_site_occupancy
  Ho  Ho0  1  0.000000  0.500000  0.807108  1
  Tm  Tm1  1  0.500000  0.000000  0.193512  1
  Ag  Ag2  1  0.500000  0.500000  0.999528  1
  Ag  Ag3  1  0.000000  0.000000  0.999528  1
  Te  Te4  1  0.203138  0.296862  0.289562  1
  Te  Te5  1  0.299323  0.799323  0.710600  1
  Te  Te6  1  0.796862  0.703138  0.289562  1
  Te  Te7  1  0.700677  0.200677  0.710600  1
