# generated using pymatgen
data_SrDySc2(ZnSn)4
_symmetry_space_group_name_H-M   'P 1'
_cell_length_a   4.48257700
_cell_length_b   4.48257950
_cell_length_c   16.15680400
_cell_angle_alpha   90.00000000
_cell_angle_beta   90.00000000
_cell_angle_gamma   120.00001845
_symmetry_Int_Tables_number   1
_chemical_formula_structural   SrDySc2(ZnSn)4
_chemical_formula_sum   'Sr1 Dy1 Sc2 Zn4 Sn4'
_cell_volume   281.15238154
_cell_formula_units_Z   1
loop_
 _symmetry_equiv_pos_site_id
 _symmetry_equiv_pos_as_xyz
  1  'x, y, z'
loop_
 _atom_site_type_symbol
 _atom_site_label
 _atom_site_symmetry_multiplicity
 _atom_site_fract_x
 _atom_site_fract_y
 _atom_site_fract_z
 _atom_site_occupancy
  Sr  Sr0  1  0.000000  0.000000  0.000000  1
  Dy  Dy1  1  0.000000  0.000000  0.500000  1
  Sc  Sc2  1  0.000000  0.000000  0.259409  1
  Sc  Sc3  1  0.000000  0.000000  0.740591  1
  Zn  Zn4  1  0.333333  0.666667  0.341097  1
  Zn  Zn5  1  0.666667  0.333333  0.658903  1
  Zn  Zn6  1  0.666667  0.333333  0.819952  1
  Zn  Zn7  1  0.333333  0.666667  0.180048  1
  Sn  Sn8  1  0.333333  0.666667  0.865496  1
  Sn  Sn9  1  0.666667  0.333333  0.134504  1
  Sn  Sn10  1  0.666667  0.333333  0.389100  1
  Sn  Sn11  1  0.333333  0.666667  0.610900  1
