# generated using pymatgen
data_Ba2Eu(AgSn)3
_symmetry_space_group_name_H-M   'P 1'
_cell_length_a   4.96840700
_cell_length_b   4.96840666
_cell_length_c   12.76193000
_cell_angle_alpha   90.00000000
_cell_angle_beta   90.00000000
_cell_angle_gamma   120.00000890
_symmetry_Int_Tables_number   1
_chemical_formula_structural   Ba2Eu(AgSn)3
_chemical_formula_sum   'Ba2 Eu1 Ag3 Sn3'
_cell_volume   272.82317036
_cell_formula_units_Z   1
loop_
 _symmetry_equiv_pos_site_id
 _symmetry_equiv_pos_as_xyz
  1  'x, y, z'
loop_
 _atom_site_type_symbol
 _atom_site_label
 _atom_site_symmetry_multiplicity
 _atom_site_fract_x
 _atom_site_fract_y
 _atom_site_fract_z
 _atom_site_occupancy
  Ba  Ba0  1  0.666667  0.333333  0.681393  1
  Ba  Ba1  1  0.666667  0.333333  0.318607  1
  Eu  Eu2  1  0.666667  0.333333  0.000000  1
  Ag  Ag3  1  0.000000  0.000000  0.863989  1
  Ag  Ag4  1  0.000000  0.000000  0.136011  1
  Ag  Ag5  1  0.333333  0.666667  0.500000  1
  Sn  Sn6  1  0.333333  0.666667  0.875076  1
  Sn  Sn7  1  0.000000  0.000000  0.500000  1
  Sn  Sn8  1  0.333333  0.666667  0.124924  1
