# generated using pymatgen
data_YSe27
_symmetry_space_group_name_H-M   'P 1'
_cell_length_a   16.27055707
_cell_length_b   16.27055749
_cell_length_c   16.27055796
_cell_angle_alpha   119.17568425
_cell_angle_beta   119.17567731
_cell_angle_gamma   119.17567499
_symmetry_Int_Tables_number   1
_chemical_formula_structural   YSe27
_chemical_formula_sum   'Y1 Se27'
_cell_volume   1013.49315249
_cell_formula_units_Z   1
loop_
 _symmetry_equiv_pos_site_id
 _symmetry_equiv_pos_as_xyz
  1  'x, y, z'
loop_
 _atom_site_type_symbol
 _atom_site_label
 _atom_site_symmetry_multiplicity
 _atom_site_fract_x
 _atom_site_fract_y
 _atom_site_fract_z
 _atom_site_occupancy
  Y  Y0  1  0.451142  0.451142  0.451142  1
  Se  Se1  1  0.990896  0.597731  0.597731  1
  Se  Se2  1  0.597731  0.597731  0.990896  1
  Se  Se3  1  0.597731  0.990896  0.597731  1
  Se  Se4  1  0.274088  0.892577  0.757776  1
  Se  Se5  1  0.892577  0.757776  0.274088  1
  Se  Se6  1  0.757776  0.274088  0.892577  1
  Se  Se7  1  0.892577  0.274088  0.757776  1
  Se  Se8  1  0.274088  0.757776  0.892577  1
  Se  Se9  1  0.757776  0.892577  0.274088  1
  Se  Se10  1  0.062358  0.595280  0.404678  1
  Se  Se11  1  0.595280  0.404678  0.062358  1
  Se  Se12  1  0.404678  0.062358  0.595280  1
  Se  Se13  1  0.595280  0.062358  0.404678  1
  Se  Se14  1  0.062358  0.404678  0.595280  1
  Se  Se15  1  0.404678  0.595280  0.062358  1
  Se  Se16  1  0.384511  0.768946  0.630825  1
  Se  Se17  1  0.768946  0.630825  0.384511  1
  Se  Se18  1  0.630825  0.384511  0.768946  1
  Se  Se19  1  0.768946  0.384511  0.630825  1
  Se  Se20  1  0.384511  0.630825  0.768946  1
  Se  Se21  1  0.630825  0.768946  0.384511  1
  Se  Se22  1  0.159336  0.427443  0.427443  1
  Se  Se23  1  0.427443  0.427443  0.159336  1
  Se  Se24  1  0.427443  0.159336  0.427443  1
  Se  Se25  1  0.025334  0.913984  0.913984  1
  Se  Se26  1  0.913984  0.913984  0.025334  1
  Se  Se27  1  0.913984  0.025334  0.913984  1
