# generated using pymatgen
data_Te2PbSe
_symmetry_space_group_name_H-M   'P 1'
_cell_length_a   14.90041160
_cell_length_b   14.90041160
_cell_length_c   4.03483800
_cell_angle_alpha   90.00000000
_cell_angle_beta   90.00000000
_cell_angle_gamma   162.49857694
_symmetry_Int_Tables_number   1
_chemical_formula_structural   Te2PbSe
_chemical_formula_sum   'Te4 Pb2 Se2'
_cell_volume   269.40065432
_cell_formula_units_Z   2
loop_
 _symmetry_equiv_pos_site_id
 _symmetry_equiv_pos_as_xyz
  1  'x, y, z'
loop_
 _atom_site_type_symbol
 _atom_site_label
 _atom_site_symmetry_multiplicity
 _atom_site_fract_x
 _atom_site_fract_y
 _atom_site_fract_z
 _atom_site_occupancy
  Te  Te0  1  0.573975  0.426025  0.750000  1
  Te  Te1  1  0.426025  0.573975  0.250000  1
  Te  Te2  1  0.077922  0.922078  0.250000  1
  Te  Te3  1  0.922078  0.077922  0.750000  1
  Pb  Pb4  1  0.198352  0.801648  0.750000  1
  Pb  Pb5  1  0.801648  0.198352  0.250000  1
  Se  Se6  1  0.702776  0.297224  0.250000  1
  Se  Se7  1  0.297224  0.702776  0.750000  1
