# generated using pymatgen
data_NdU(CuSb2)2
_symmetry_space_group_name_H-M   'P 1'
_cell_length_a   4.34280600
_cell_length_b   4.34280600
_cell_length_c   9.85184400
_cell_angle_alpha   90.00000000
_cell_angle_beta   90.00000000
_cell_angle_gamma   90.00000000
_symmetry_Int_Tables_number   1
_chemical_formula_structural   NdU(CuSb2)2
_chemical_formula_sum   'Nd1 U1 Cu2 Sb4'
_cell_volume   185.80542272
_cell_formula_units_Z   1
loop_
 _symmetry_equiv_pos_site_id
 _symmetry_equiv_pos_as_xyz
  1  'x, y, z'
loop_
 _atom_site_type_symbol
 _atom_site_label
 _atom_site_symmetry_multiplicity
 _atom_site_fract_x
 _atom_site_fract_y
 _atom_site_fract_z
 _atom_site_occupancy
  Nd  Nd0  1  0.500000  0.000000  0.242217  1
  U  U1  1  0.000000  0.500000  0.743153  1
  Cu  Cu2  1  0.500000  0.500000  0.507065  1
  Cu  Cu3  1  0.000000  0.000000  0.507065  1
  Sb  Sb4  1  0.500000  0.500000  0.988327  1
  Sb  Sb5  1  0.000000  0.000000  0.988327  1
  Sb  Sb6  1  0.000000  0.500000  0.350916  1
  Sb  Sb7  1  0.500000  0.000000  0.672931  1
