# generated using pymatgen
data_Zr3Ti3Ge2Te
_symmetry_space_group_name_H-M   'P 1'
_cell_length_a   7.16457400
_cell_length_b   7.16457442
_cell_length_c   3.86953500
_cell_angle_alpha   90.00000000
_cell_angle_beta   90.00000000
_cell_angle_gamma   120.00000729
_symmetry_Int_Tables_number   1
_chemical_formula_structural   Zr3Ti3Ge2Te
_chemical_formula_sum   'Zr3 Ti3 Ge2 Te1'
_cell_volume   172.01651704
_cell_formula_units_Z   1
loop_
 _symmetry_equiv_pos_site_id
 _symmetry_equiv_pos_as_xyz
  1  'x, y, z'
loop_
 _atom_site_type_symbol
 _atom_site_label
 _atom_site_symmetry_multiplicity
 _atom_site_fract_x
 _atom_site_fract_y
 _atom_site_fract_z
 _atom_site_occupancy
  Zr  Zr0  1  0.397929  0.986160  0.500000  1
  Zr  Zr1  1  0.013840  0.411770  0.500000  1
  Zr  Zr2  1  0.588231  0.602071  0.500000  1
  Ti  Ti3  1  0.753549  0.989266  0.000000  1
  Ti  Ti4  1  0.235717  0.246451  0.000000  1
  Ti  Ti5  1  0.010734  0.764284  0.000000  1
  Ge  Ge6  1  0.333333  0.666666  0.000000  1
  Ge  Ge7  1  0.000000  0.000000  0.500000  1
  Te  Te8  1  0.666667  0.333334  0.000000  1
