# generated using pymatgen
data_La2ErCu2Sb3
_symmetry_space_group_name_H-M   'P 1'
_cell_length_a   4.46516100
_cell_length_b   4.46516137
_cell_length_c   24.32879900
_cell_angle_alpha   90.00000000
_cell_angle_beta   90.00000000
_cell_angle_gamma   120.00000465
_symmetry_Int_Tables_number   1
_chemical_formula_structural   La2ErCu2Sb3
_chemical_formula_sum   'La4 Er2 Cu4 Sb6'
_cell_volume   420.07376927
_cell_formula_units_Z   2
loop_
 _symmetry_equiv_pos_site_id
 _symmetry_equiv_pos_as_xyz
  1  'x, y, z'
loop_
 _atom_site_type_symbol
 _atom_site_label
 _atom_site_symmetry_multiplicity
 _atom_site_fract_x
 _atom_site_fract_y
 _atom_site_fract_z
 _atom_site_occupancy
  La  La0  1  0.666667  0.333333  0.920175  1
  La  La1  1  0.333333  0.666667  0.079825  1
  La  La2  1  0.333333  0.666667  0.420175  1
  La  La3  1  0.666667  0.333333  0.579825  1
  Er  Er4  1  0.333333  0.666667  0.250000  1
  Er  Er5  1  0.666667  0.333333  0.750000  1
  Cu  Cu6  1  0.000000  0.000000  0.804393  1
  Cu  Cu7  1  0.000000  0.000000  0.195607  1
  Cu  Cu8  1  0.000000  0.000000  0.304393  1
  Cu  Cu9  1  0.000000  0.000000  0.695607  1
  Sb  Sb10  1  0.333333  0.666667  0.663908  1
  Sb  Sb11  1  0.000000  0.000000  0.500000  1
  Sb  Sb12  1  0.666667  0.333333  0.336092  1
  Sb  Sb13  1  0.333333  0.666667  0.836092  1
  Sb  Sb14  1  0.666667  0.333333  0.163908  1
  Sb  Sb15  1  0.000000  0.000000  0.000000  1
