# generated using pymatgen
data_Hf3Zr7Ga2SnSb5
_symmetry_space_group_name_H-M   'P 1'
_cell_length_a   8.68460840
_cell_length_b   8.67287959
_cell_length_c   5.84220602
_cell_angle_alpha   89.99932710
_cell_angle_beta   89.99252348
_cell_angle_gamma   119.95993359
_symmetry_Int_Tables_number   1
_chemical_formula_structural   Hf3Zr7Ga2SnSb5
_chemical_formula_sum   'Hf3 Zr7 Ga2 Sn1 Sb5'
_cell_volume   381.23805910
_cell_formula_units_Z   1
loop_
 _symmetry_equiv_pos_site_id
 _symmetry_equiv_pos_as_xyz
  1  'x, y, z'
loop_
 _atom_site_type_symbol
 _atom_site_label
 _atom_site_symmetry_multiplicity
 _atom_site_fract_x
 _atom_site_fract_y
 _atom_site_fract_z
 _atom_site_occupancy
  Hf  Hf0  1  0.333496  0.666908  0.000629  1
  Hf  Hf1  1  0.333476  0.666860  0.499382  1
  Hf  Hf2  1  0.666577  0.333377  0.499336  1
  Zr  Zr3  1  0.732591  0.732669  0.749924  1
  Zr  Zr4  1  0.267170  0.999580  0.749884  1
  Zr  Zr5  1  0.000260  0.267078  0.749922  1
  Zr  Zr6  1  0.268625  0.268582  0.250105  1
  Zr  Zr7  1  0.731208  0.999564  0.250137  1
  Zr  Zr8  1  0.000230  0.732770  0.250133  1
  Zr  Zr9  1  0.666391  0.333413  0.000499  1
  Ga  Ga10  1  0.999991  0.000632  0.000895  1
  Ga  Ga11  1  0.000012  0.000627  0.499115  1
  Sn  Sn12  1  0.000328  0.388411  0.250317  1
  Sb  Sb13  1  0.389535  0.390500  0.749677  1
  Sb  Sb14  1  0.610128  0.000291  0.749682  1
  Sb  Sb15  1  0.000311  0.608593  0.749696  1
  Sb  Sb16  1  0.610168  0.610487  0.250346  1
  Sb  Sb17  1  0.389502  0.999657  0.250322  1
