# generated using pymatgen
data_Ba2LiCu3Sb4
_symmetry_space_group_name_H-M   'P 1'
_cell_length_a   4.73734900
_cell_length_b   4.73734900
_cell_length_c   10.97025100
_cell_angle_alpha   90.00000000
_cell_angle_beta   90.00000000
_cell_angle_gamma   90.00000000
_symmetry_Int_Tables_number   1
_chemical_formula_structural   Ba2LiCu3Sb4
_chemical_formula_sum   'Ba2 Li1 Cu3 Sb4'
_cell_volume   246.19958982
_cell_formula_units_Z   1
loop_
 _symmetry_equiv_pos_site_id
 _symmetry_equiv_pos_as_xyz
  1  'x, y, z'
loop_
 _atom_site_type_symbol
 _atom_site_label
 _atom_site_symmetry_multiplicity
 _atom_site_fract_x
 _atom_site_fract_y
 _atom_site_fract_z
 _atom_site_occupancy
  Ba  Ba0  1  0.000000  0.500000  0.758407  1
  Ba  Ba1  1  0.500000  0.000000  0.241593  1
  Li  Li2  1  0.000000  0.000000  0.000000  1
  Cu  Cu3  1  0.500000  0.500000  0.000000  1
  Cu  Cu4  1  0.000000  0.500000  0.372557  1
  Cu  Cu5  1  0.500000  0.000000  0.627443  1
  Sb  Sb6  1  0.000000  0.000000  0.500000  1
  Sb  Sb7  1  0.500000  0.500000  0.500000  1
  Sb  Sb8  1  0.000000  0.500000  0.129738  1
  Sb  Sb9  1  0.500000  0.000000  0.870262  1
