# generated using pymatgen
data_KAs12Ru3Pt
_symmetry_space_group_name_H-M   'P 1'
_cell_length_a   7.48660365
_cell_length_b   7.48660331
_cell_length_c   7.48660513
_cell_angle_alpha   109.44867953
_cell_angle_beta   109.44868118
_cell_angle_gamma   109.44868790
_symmetry_Int_Tables_number   1
_chemical_formula_structural   KAs12Ru3Pt
_chemical_formula_sum   'K1 As12 Ru3 Pt1'
_cell_volume   323.29170675
_cell_formula_units_Z   1
loop_
 _symmetry_equiv_pos_site_id
 _symmetry_equiv_pos_as_xyz
  1  'x, y, z'
loop_
 _atom_site_type_symbol
 _atom_site_label
 _atom_site_symmetry_multiplicity
 _atom_site_fract_x
 _atom_site_fract_y
 _atom_site_fract_z
 _atom_site_occupancy
  K  K0  1  0.000000  0.000000  0.000000  1
  As  As1  1  0.859029  0.651371  0.499410  1
  As  As2  1  0.140971  0.348629  0.500590  1
  As  As3  1  0.150290  0.650515  0.800434  1
  As  As4  1  0.849710  0.349485  0.199566  1
  As  As5  1  0.651371  0.499410  0.859029  1
  As  As6  1  0.348629  0.500590  0.140971  1
  As  As7  1  0.650515  0.800434  0.150290  1
  As  As8  1  0.349485  0.199566  0.849710  1
  As  As9  1  0.499410  0.859029  0.651371  1
  As  As10  1  0.500590  0.140971  0.348629  1
  As  As11  1  0.199566  0.849710  0.349485  1
  As  As12  1  0.800434  0.150290  0.650515  1
  Ru  Ru13  1  0.500000  0.000000  0.000000  1
  Ru  Ru14  1  0.000000  0.500000  0.000000  1
  Ru  Ru15  1  0.000000  0.000000  0.500000  1
  Pt  Pt16  1  0.500000  0.500000  0.500000  1
