# generated using pymatgen
data_LaCe(Sn2Sb)2
_symmetry_space_group_name_H-M   'P 1'
_cell_length_a   4.81237700
_cell_length_b   4.89358700
_cell_length_c   9.24969600
_cell_angle_alpha   90.00000000
_cell_angle_beta   90.00000000
_cell_angle_gamma   90.00000000
_symmetry_Int_Tables_number   1
_chemical_formula_structural   LaCe(Sn2Sb)2
_chemical_formula_sum   'La1 Ce1 Sn4 Sb2'
_cell_volume   217.82835698
_cell_formula_units_Z   1
loop_
 _symmetry_equiv_pos_site_id
 _symmetry_equiv_pos_as_xyz
  1  'x, y, z'
loop_
 _atom_site_type_symbol
 _atom_site_label
 _atom_site_symmetry_multiplicity
 _atom_site_fract_x
 _atom_site_fract_y
 _atom_site_fract_z
 _atom_site_occupancy
  La  La0  1  0.000000  0.000000  0.500000  1
  Ce  Ce1  1  0.000000  0.000000  0.000000  1
  Sn  Sn2  1  0.500000  0.500000  0.000000  1
  Sn  Sn3  1  0.500000  0.500000  0.500000  1
  Sn  Sn4  1  0.000000  0.500000  0.246230  1
  Sn  Sn5  1  0.000000  0.500000  0.753770  1
  Sb  Sb6  1  0.500000  0.000000  0.245883  1
  Sb  Sb7  1  0.500000  0.000000  0.754117  1
