# generated using pymatgen
data_Hf3Zr7Ga2(SnSb)3
_symmetry_space_group_name_H-M   'P 1'
_cell_length_a   8.67861900
_cell_length_b   8.67862053
_cell_length_c   5.88223000
_cell_angle_alpha   90.00000000
_cell_angle_beta   90.00000000
_cell_angle_gamma   119.99999799
_symmetry_Int_Tables_number   1
_chemical_formula_structural   Hf3Zr7Ga2(SnSb)3
_chemical_formula_sum   'Hf3 Zr7 Ga2 Sn3 Sb3'
_cell_volume   383.68424327
_cell_formula_units_Z   1
loop_
 _symmetry_equiv_pos_site_id
 _symmetry_equiv_pos_as_xyz
  1  'x, y, z'
loop_
 _atom_site_type_symbol
 _atom_site_label
 _atom_site_symmetry_multiplicity
 _atom_site_fract_x
 _atom_site_fract_y
 _atom_site_fract_z
 _atom_site_occupancy
  Hf  Hf0  1  0.333333  0.666667  0.001782  1
  Hf  Hf1  1  0.333333  0.666667  0.498341  1
  Hf  Hf2  1  0.666667  0.333333  0.498067  1
  Zr  Zr3  1  0.734127  0.734680  0.749762  1
  Zr  Zr4  1  0.265320  0.999447  0.749762  1
  Zr  Zr5  1  0.000553  0.265873  0.749762  1
  Zr  Zr6  1  0.269454  0.269802  0.250389  1
  Zr  Zr7  1  0.730198  0.999652  0.250389  1
  Zr  Zr8  1  0.000348  0.730546  0.250389  1
  Zr  Zr9  1  0.666667  0.333333  0.001278  1
  Ga  Ga10  1  0.000000  0.000000  0.004295  1
  Ga  Ga11  1  0.000000  0.000000  0.495730  1
  Sn  Sn12  1  0.613192  0.613467  0.250523  1
  Sn  Sn13  1  0.386533  0.999726  0.250523  1
  Sn  Sn14  1  0.000274  0.386808  0.250523  1
  Sb  Sb15  1  0.390855  0.391205  0.749495  1
  Sb  Sb16  1  0.608795  0.999650  0.749495  1
  Sb  Sb17  1  0.000350  0.609145  0.749495  1
