# generated using pymatgen
data_Zr10CuSi(Sn2Sb)2
_symmetry_space_group_name_H-M   'P 1'
_cell_length_a   8.68830944
_cell_length_b   8.68830904
_cell_length_c   5.85365789
_cell_angle_alpha   90.03158138
_cell_angle_beta   90.03157636
_cell_angle_gamma   120.03220397
_symmetry_Int_Tables_number   1
_chemical_formula_structural   Zr10CuSi(Sn2Sb)2
_chemical_formula_sum   'Zr10 Cu1 Si1 Sn4 Sb2'
_cell_volume   382.54913209
_cell_formula_units_Z   1
loop_
 _symmetry_equiv_pos_site_id
 _symmetry_equiv_pos_as_xyz
  1  'x, y, z'
loop_
 _atom_site_type_symbol
 _atom_site_label
 _atom_site_symmetry_multiplicity
 _atom_site_fract_x
 _atom_site_fract_y
 _atom_site_fract_z
 _atom_site_occupancy
  Zr  Zr0  1  0.666850  0.332361  0.999188  1
  Zr  Zr1  1  0.332361  0.666850  0.999188  1
  Zr  Zr2  1  0.332652  0.666977  0.500786  1
  Zr  Zr3  1  0.666977  0.332652  0.500786  1
  Zr  Zr4  1  0.737505  0.737505  0.746623  1
  Zr  Zr5  1  0.263266  0.000400  0.747407  1
  Zr  Zr6  1  0.000400  0.263266  0.747407  1
  Zr  Zr7  1  0.260320  0.260320  0.252958  1
  Zr  Zr8  1  0.738659  0.000515  0.253246  1
  Zr  Zr9  1  0.000515  0.738659  0.253246  1
  Cu  Cu10  1  0.998751  0.998751  0.996579  1
  Si  Si11  1  0.999556  0.999556  0.502548  1
  Sn  Sn12  1  0.389451  0.389451  0.752825  1
  Sn  Sn13  1  0.612229  0.999268  0.752206  1
  Sn  Sn14  1  0.999268  0.612229  0.752206  1
  Sn  Sn15  1  0.610702  0.610702  0.247987  1
  Sb  Sb16  1  0.390343  0.000196  0.247408  1
  Sb  Sb17  1  0.000196  0.390343  0.247408  1
