# generated using pymatgen
data_Zr10Cu2SnSb5
_symmetry_space_group_name_H-M   'P 1'
_cell_length_a   8.66612247
_cell_length_b   8.66612341
_cell_length_c   5.83896900
_cell_angle_alpha   90.00000000
_cell_angle_beta   90.00000000
_cell_angle_gamma   120.08658884
_symmetry_Int_Tables_number   1
_chemical_formula_structural   Zr10Cu2SnSb5
_chemical_formula_sum   'Zr10 Cu2 Sn1 Sb5'
_cell_volume   379.43457110
_cell_formula_units_Z   1
loop_
 _symmetry_equiv_pos_site_id
 _symmetry_equiv_pos_as_xyz
  1  'x, y, z'
loop_
 _atom_site_type_symbol
 _atom_site_label
 _atom_site_symmetry_multiplicity
 _atom_site_fract_x
 _atom_site_fract_y
 _atom_site_fract_z
 _atom_site_occupancy
  Zr  Zr0  1  0.666943  0.333202  0.999637  1
  Zr  Zr1  1  0.333202  0.666943  0.999637  1
  Zr  Zr2  1  0.333202  0.666943  0.500363  1
  Zr  Zr3  1  0.666943  0.333202  0.500363  1
  Zr  Zr4  1  0.735181  0.735181  0.750000  1
  Zr  Zr5  1  0.265717  0.999804  0.750000  1
  Zr  Zr6  1  0.999804  0.265717  0.750000  1
  Zr  Zr7  1  0.264563  0.264563  0.250000  1
  Zr  Zr8  1  0.734427  0.000184  0.250000  1
  Zr  Zr9  1  0.000184  0.734427  0.250000  1
  Cu  Cu10  1  0.000550  0.000550  0.500486  1
  Cu  Cu11  1  0.000550  0.000550  0.999514  1
  Sn  Sn12  1  0.383847  0.383847  0.750000  1
  Sb  Sb13  1  0.615532  0.999846  0.750000  1
  Sb  Sb14  1  0.999846  0.615532  0.750000  1
  Sb  Sb15  1  0.614689  0.614689  0.250000  1
  Sb  Sb16  1  0.384356  0.000465  0.250000  1
  Sb  Sb17  1  0.000465  0.384356  0.250000  1
