# generated using pymatgen
data_Tb3MgCd2AgSn2
_symmetry_space_group_name_H-M   'P 1'
_cell_length_a   7.50077532
_cell_length_b   7.50077400
_cell_length_c   4.57099000
_cell_angle_alpha   90.00000000
_cell_angle_beta   90.00000000
_cell_angle_gamma   120.29775332
_symmetry_Int_Tables_number   1
_chemical_formula_structural   Tb3MgCd2AgSn2
_chemical_formula_sum   'Tb3 Mg1 Cd2 Ag1 Sn2'
_cell_volume   222.04564772
_cell_formula_units_Z   1
loop_
 _symmetry_equiv_pos_site_id
 _symmetry_equiv_pos_as_xyz
  1  'x, y, z'
loop_
 _atom_site_type_symbol
 _atom_site_label
 _atom_site_symmetry_multiplicity
 _atom_site_fract_x
 _atom_site_fract_y
 _atom_site_fract_z
 _atom_site_occupancy
  Tb  Tb0  1  0.583873  0.001187  0.000000  1
  Tb  Tb1  1  0.001187  0.583873  0.000000  1
  Tb  Tb2  1  0.413636  0.413636  0.000000  1
  Mg  Mg3  1  0.768367  0.768367  0.500000  1
  Cd  Cd4  1  0.237617  0.999026  0.500000  1
  Cd  Cd5  1  0.999026  0.237617  0.500000  1
  Ag  Ag6  1  0.993251  0.993251  0.000000  1
  Sn  Sn7  1  0.336419  0.666623  0.500000  1
  Sn  Sn8  1  0.666623  0.336419  0.500000  1
