# generated using pymatgen
data_Zr10AgBiPb6
_symmetry_space_group_name_H-M   'P 1'
_cell_length_a   8.94227200
_cell_length_b   8.94227224
_cell_length_c   6.04357800
_cell_angle_alpha   90.00000000
_cell_angle_beta   90.00000000
_cell_angle_gamma   119.99999910
_symmetry_Int_Tables_number   1
_chemical_formula_structural   Zr10AgBiPb6
_chemical_formula_sum   'Zr10 Ag1 Bi1 Pb6'
_cell_volume   418.52415732
_cell_formula_units_Z   1
loop_
 _symmetry_equiv_pos_site_id
 _symmetry_equiv_pos_as_xyz
  1  'x, y, z'
loop_
 _atom_site_type_symbol
 _atom_site_label
 _atom_site_symmetry_multiplicity
 _atom_site_fract_x
 _atom_site_fract_y
 _atom_site_fract_z
 _atom_site_occupancy
  Zr  Zr0  1  0.666667  0.333333  0.000000  1
  Zr  Zr1  1  0.333333  0.666667  0.000000  1
  Zr  Zr2  1  0.333333  0.666667  0.500000  1
  Zr  Zr3  1  0.666667  0.333333  0.500000  1
  Zr  Zr4  1  0.719257  0.719257  0.747544  1
  Zr  Zr5  1  0.280743  0.000000  0.747544  1
  Zr  Zr6  1  0.000000  0.280743  0.747544  1
  Zr  Zr7  1  0.280743  0.280743  0.252456  1
  Zr  Zr8  1  0.719257  0.000000  0.252456  1
  Zr  Zr9  1  0.000000  0.719257  0.252456  1
  Ag  Ag10  1  0.000000  0.000000  0.500000  1
  Bi  Bi11  1  0.000000  0.000000  0.000000  1
  Pb  Pb12  1  0.381523  0.381523  0.748359  1
  Pb  Pb13  1  0.618477  0.000000  0.748359  1
  Pb  Pb14  1  0.000000  0.618477  0.748359  1
  Pb  Pb15  1  0.618477  0.618477  0.251641  1
  Pb  Pb16  1  0.381523  0.000000  0.251641  1
  Pb  Pb17  1  0.000000  0.381523  0.251641  1
