# generated using pymatgen
data_Nd10Pb6AuI
_symmetry_space_group_name_H-M   'P 1'
_cell_length_a   9.71074300
_cell_length_b   9.71074264
_cell_length_c   6.87771500
_cell_angle_alpha   90.00000000
_cell_angle_beta   90.00000000
_cell_angle_gamma   119.99999782
_symmetry_Int_Tables_number   1
_chemical_formula_structural   Nd10Pb6AuI
_chemical_formula_sum   'Nd10 Pb6 Au1 I1'
_cell_volume   561.66805175
_cell_formula_units_Z   1
loop_
 _symmetry_equiv_pos_site_id
 _symmetry_equiv_pos_as_xyz
  1  'x, y, z'
loop_
 _atom_site_type_symbol
 _atom_site_label
 _atom_site_symmetry_multiplicity
 _atom_site_fract_x
 _atom_site_fract_y
 _atom_site_fract_z
 _atom_site_occupancy
  Nd  Nd0  1  0.731152  0.000000  0.740761  1
  Nd  Nd1  1  0.000000  0.268848  0.259239  1
  Nd  Nd2  1  0.731152  0.731152  0.259239  1
  Nd  Nd3  1  0.333333  0.666667  0.500000  1
  Nd  Nd4  1  0.333333  0.666667  0.000000  1
  Nd  Nd5  1  0.666667  0.333333  0.500000  1
  Nd  Nd6  1  0.666667  0.333333  0.000000  1
  Nd  Nd7  1  0.268848  0.000000  0.259239  1
  Nd  Nd8  1  0.268848  0.268848  0.740761  1
  Nd  Nd9  1  0.000000  0.731152  0.740761  1
  Pb  Pb10  1  0.384040  0.000000  0.750776  1
  Pb  Pb11  1  0.615960  0.000000  0.249224  1
  Pb  Pb12  1  0.000000  0.615960  0.249224  1
  Pb  Pb13  1  0.615960  0.615960  0.750776  1
  Pb  Pb14  1  0.000000  0.384040  0.750776  1
  Pb  Pb15  1  0.384040  0.384040  0.249224  1
  Au  Au16  1  0.000000  0.000000  0.500000  1
  I  I17  1  0.000000  0.000000  0.000000  1
