# generated using pymatgen
data_La3Cd3AgSn2
_symmetry_space_group_name_H-M   'P 1'
_cell_length_a   7.73183777
_cell_length_b   7.73183792
_cell_length_c   4.77136300
_cell_angle_alpha   90.00000000
_cell_angle_beta   90.00000000
_cell_angle_gamma   120.01859027
_symmetry_Int_Tables_number   1
_chemical_formula_structural   La3Cd3AgSn2
_chemical_formula_sum   'La3 Cd3 Ag1 Sn2'
_cell_volume   246.97737962
_cell_formula_units_Z   1
loop_
 _symmetry_equiv_pos_site_id
 _symmetry_equiv_pos_as_xyz
  1  'x, y, z'
loop_
 _atom_site_type_symbol
 _atom_site_label
 _atom_site_symmetry_multiplicity
 _atom_site_fract_x
 _atom_site_fract_y
 _atom_site_fract_z
 _atom_site_occupancy
  La  La0  1  0.587439  0.000835  0.000000  1
  La  La1  1  0.000835  0.587439  0.000000  1
  La  La2  1  0.411640  0.411640  0.000000  1
  Cd  Cd3  1  0.766176  0.766176  0.500000  1
  Cd  Cd4  1  0.234253  0.998971  0.500000  1
  Cd  Cd5  1  0.998971  0.234253  0.500000  1
  Ag  Ag6  1  0.998704  0.998704  0.000000  1
  Sn  Sn7  1  0.335248  0.666733  0.500000  1
  Sn  Sn8  1  0.666733  0.335248  0.500000  1
