# generated using pymatgen
data_La2GaCu4Sn3
_symmetry_space_group_name_H-M   'P 1'
_cell_length_a   4.46295500
_cell_length_b   4.46295500
_cell_length_c   10.53355400
_cell_angle_alpha   90.00000000
_cell_angle_beta   90.00000000
_cell_angle_gamma   90.00000000
_symmetry_Int_Tables_number   1
_chemical_formula_structural   La2GaCu4Sn3
_chemical_formula_sum   'La2 Ga1 Cu4 Sn3'
_cell_volume   209.80698446
_cell_formula_units_Z   1
loop_
 _symmetry_equiv_pos_site_id
 _symmetry_equiv_pos_as_xyz
  1  'x, y, z'
loop_
 _atom_site_type_symbol
 _atom_site_label
 _atom_site_symmetry_multiplicity
 _atom_site_fract_x
 _atom_site_fract_y
 _atom_site_fract_z
 _atom_site_occupancy
  La  La0  1  0.500000  0.000000  0.753151  1
  La  La1  1  0.000000  0.500000  0.246849  1
  Ga  Ga2  1  0.500000  0.500000  0.500000  1
  Cu  Cu3  1  0.000000  0.500000  0.626921  1
  Cu  Cu4  1  0.500000  0.000000  0.373079  1
  Cu  Cu5  1  0.000000  0.000000  0.000000  1
  Cu  Cu6  1  0.500000  0.500000  0.000000  1
  Sn  Sn7  1  0.000000  0.500000  0.869343  1
  Sn  Sn8  1  0.500000  0.000000  0.130657  1
  Sn  Sn9  1  0.000000  0.000000  0.500000  1
