# generated using pymatgen
data_LaYbCdAgBi4
_symmetry_space_group_name_H-M   'P 1'
_cell_length_a   4.64414700
_cell_length_b   4.63784000
_cell_length_c   10.75475900
_cell_angle_alpha   90.00000000
_cell_angle_beta   90.00000000
_cell_angle_gamma   90.00000000
_symmetry_Int_Tables_number   1
_chemical_formula_structural   LaYbCdAgBi4
_chemical_formula_sum   'La1 Yb1 Cd1 Ag1 Bi4'
_cell_volume   231.64471847
_cell_formula_units_Z   1
loop_
 _symmetry_equiv_pos_site_id
 _symmetry_equiv_pos_as_xyz
  1  'x, y, z'
loop_
 _atom_site_type_symbol
 _atom_site_label
 _atom_site_symmetry_multiplicity
 _atom_site_fract_x
 _atom_site_fract_y
 _atom_site_fract_z
 _atom_site_occupancy
  La  La0  1  0.500000  0.000000  0.741901  1
  Yb  Yb1  1  0.000000  0.500000  0.253486  1
  Cd  Cd2  1  0.000000  0.000000  0.005664  1
  Ag  Ag3  1  0.500000  0.500000  0.005640  1
  Bi  Bi4  1  0.000000  0.500000  0.809269  1
  Bi  Bi5  1  0.500000  0.000000  0.188881  1
  Bi  Bi6  1  0.000000  0.000000  0.497448  1
  Bi  Bi7  1  0.500000  0.500000  0.497711  1
