# generated using pymatgen
data_Ac3La(ZnSn)4
_symmetry_space_group_name_H-M   'P 1'
_cell_length_a   4.69112100
_cell_length_b   4.69112079
_cell_length_c   17.85765200
_cell_angle_alpha   90.00000000
_cell_angle_beta   90.00000000
_cell_angle_gamma   119.99999446
_symmetry_Int_Tables_number   1
_chemical_formula_structural   Ac3La(ZnSn)4
_chemical_formula_sum   'Ac3 La1 Zn4 Sn4'
_cell_volume   340.33629104
_cell_formula_units_Z   1
loop_
 _symmetry_equiv_pos_site_id
 _symmetry_equiv_pos_as_xyz
  1  'x, y, z'
loop_
 _atom_site_type_symbol
 _atom_site_label
 _atom_site_symmetry_multiplicity
 _atom_site_fract_x
 _atom_site_fract_y
 _atom_site_fract_z
 _atom_site_occupancy
  Ac  Ac0  1  0.000000  0.000000  0.750000  1
  Ac  Ac1  1  0.000000  0.000000  0.496696  1
  Ac  Ac2  1  0.000000  0.000000  0.003304  1
  La  La3  1  0.000000  0.000000  0.250000  1
  Zn  Zn4  1  0.666667  0.333333  0.848024  1
  Zn  Zn5  1  0.666667  0.333333  0.651976  1
  Zn  Zn6  1  0.333333  0.666667  0.161727  1
  Zn  Zn7  1  0.333333  0.666667  0.338273  1
  Sn  Sn8  1  0.666667  0.333333  0.122883  1
  Sn  Sn9  1  0.666667  0.333333  0.377117  1
  Sn  Sn10  1  0.333333  0.666667  0.883576  1
  Sn  Sn11  1  0.333333  0.666667  0.616424  1
