# generated using pymatgen
data_Hf3Zr3CoBiTe
_symmetry_space_group_name_H-M   'P 1'
_cell_length_a   7.84196300
_cell_length_b   7.84196210
_cell_length_c   3.62363300
_cell_angle_alpha   90.00000000
_cell_angle_beta   90.00000000
_cell_angle_gamma   119.99999114
_symmetry_Int_Tables_number   1
_chemical_formula_structural   Hf3Zr3CoBiTe
_chemical_formula_sum   'Hf3 Zr3 Co1 Bi1 Te1'
_cell_volume   192.98537779
_cell_formula_units_Z   1
loop_
 _symmetry_equiv_pos_site_id
 _symmetry_equiv_pos_as_xyz
  1  'x, y, z'
loop_
 _atom_site_type_symbol
 _atom_site_label
 _atom_site_symmetry_multiplicity
 _atom_site_fract_x
 _atom_site_fract_y
 _atom_site_fract_z
 _atom_site_occupancy
  Hf  Hf0  1  0.234226  0.999728  0.000000  1
  Hf  Hf1  1  0.765502  0.765774  0.000000  1
  Hf  Hf2  1  0.000272  0.234498  0.000000  1
  Zr  Zr3  1  0.598412  0.992353  0.500000  1
  Zr  Zr4  1  0.393940  0.401588  0.500000  1
  Zr  Zr5  1  0.007647  0.606060  0.500000  1
  Co  Co6  1  0.000000  0.000000  0.500000  1
  Bi  Bi7  1  0.666667  0.333333  0.000000  1
  Te  Te8  1  0.333333  0.666667  0.000000  1
