# generated using pymatgen
data_Hf3ZrSb4(OsPt)2
_symmetry_space_group_name_H-M   'P 1'
_cell_length_a   6.37657292
_cell_length_b   6.37624199
_cell_length_c   7.79602800
_cell_angle_alpha   65.86164085
_cell_angle_beta   65.88381606
_cell_angle_gamma   90.00000325
_symmetry_Int_Tables_number   1
_chemical_formula_structural   Hf3ZrSb4(OsPt)2
_chemical_formula_sum   'Hf3 Zr1 Sb4 Os2 Pt2'
_cell_volume   258.64538016
_cell_formula_units_Z   1
loop_
 _symmetry_equiv_pos_site_id
 _symmetry_equiv_pos_as_xyz
  1  'x, y, z'
loop_
 _atom_site_type_symbol
 _atom_site_label
 _atom_site_symmetry_multiplicity
 _atom_site_fract_x
 _atom_site_fract_y
 _atom_site_fract_z
 _atom_site_occupancy
  Hf  Hf0  1  0.125001  0.123734  0.250000  1
  Hf  Hf1  1  0.876560  0.375220  0.750002  1
  Hf  Hf2  1  0.373440  0.875223  0.749998  1
  Zr  Zr3  1  0.625000  0.626548  0.250000  1
  Sb  Sb4  1  0.125001  0.635066  0.250000  1
  Sb  Sb5  1  0.625000  0.115521  0.250000  1
  Sb  Sb6  1  0.885484  0.875142  0.749630  1
  Sb  Sb7  1  0.364517  0.374773  0.750370  1
  Os  Os8  1  0.001841  0.001870  0.998777  1
  Os  Os9  1  0.248159  0.750647  0.501222  1
  Pt  Pt10  1  0.499022  0.499038  0.998183  1
  Pt  Pt11  1  0.750977  0.247223  0.501816  1
