# generated using pymatgen
data_Nd3Np3(Ni3Bi4)2
_symmetry_space_group_name_H-M   'P 1'
_cell_length_a   8.45387150
_cell_length_b   8.45386093
_cell_length_c   8.45387155
_cell_angle_alpha   109.50369366
_cell_angle_beta   109.43303650
_cell_angle_gamma   109.47699452
_symmetry_Int_Tables_number   1
_chemical_formula_structural   Nd3Np3(Ni3Bi4)2
_chemical_formula_sum   'Nd3 Np3 Ni6 Bi8'
_cell_volume   465.09752921
_cell_formula_units_Z   1
loop_
 _symmetry_equiv_pos_site_id
 _symmetry_equiv_pos_as_xyz
  1  'x, y, z'
loop_
 _atom_site_type_symbol
 _atom_site_label
 _atom_site_symmetry_multiplicity
 _atom_site_fract_x
 _atom_site_fract_y
 _atom_site_fract_z
 _atom_site_occupancy
  Nd  Nd0  1  0.625409  0.750000  0.375409  1
  Nd  Nd1  1  0.250033  0.125404  0.875271  1
  Nd  Nd2  1  0.749866  0.374596  0.624629  1
  Np  Np3  1  0.125266  0.875122  0.250045  1
  Np  Np4  1  0.374924  0.624878  0.750145  1
  Np  Np5  1  0.874768  0.250000  0.124768  1
  Ni  Ni6  1  0.626098  0.375058  0.249703  1
  Ni  Ni7  1  0.874645  0.124942  0.751040  1
  Ni  Ni8  1  0.374009  0.250000  0.624009  1
  Ni  Ni9  1  0.125757  0.750000  0.875757  1
  Ni  Ni10  1  0.249162  0.624757  0.374663  1
  Ni  Ni11  1  0.749906  0.875243  0.124406  1
  Bi  Bi12  1  0.345239  0.345357  0.345759  1
  Bi  Bi13  1  0.154180  0.500037  0.999874  1
  Bi  Bi14  1  0.000402  0.154643  0.499883  1
  Bi  Bi15  1  0.845378  0.846168  0.845974  1
  Bi  Bi16  1  0.499836  0.999963  0.154143  1
  Bi  Bi17  1  0.654727  0.499928  0.000515  1
  Bi  Bi18  1  0.500586  0.000072  0.654799  1
  Bi  Bi19  1  0.999806  0.653832  0.499210  1
