# generated using pymatgen
data_ZrV6GaSn5
_symmetry_space_group_name_H-M   'P 1'
_cell_length_a   5.41685837
_cell_length_b   5.41469208
_cell_length_c   9.12038300
_cell_angle_alpha   90.00000000
_cell_angle_beta   90.00000000
_cell_angle_gamma   60.00216832
_symmetry_Int_Tables_number   1
_chemical_formula_structural   ZrV6GaSn5
_chemical_formula_sum   'Zr1 V6 Ga1 Sn5'
_cell_volume   231.67247688
_cell_formula_units_Z   1
loop_
 _symmetry_equiv_pos_site_id
 _symmetry_equiv_pos_as_xyz
  1  'x, y, z'
loop_
 _atom_site_type_symbol
 _atom_site_label
 _atom_site_symmetry_multiplicity
 _atom_site_fract_x
 _atom_site_fract_y
 _atom_site_fract_z
 _atom_site_occupancy
  Zr  Zr0  1  0.999958  0.999997  0.500000  1
  V  V1  1  0.493390  0.013210  0.257913  1
  V  V2  1  0.013194  0.493382  0.257963  1
  V  V3  1  0.493412  0.493383  0.257933  1
  V  V4  1  0.493390  0.013210  0.742087  1
  V  V5  1  0.013194  0.493382  0.742037  1
  V  V6  1  0.493412  0.493383  0.742067  1
  Ga  Ga7  1  0.333424  0.333225  0.500000  1
  Sn  Sn8  1  0.999973  0.000010  0.173014  1
  Sn  Sn9  1  0.999973  0.000010  0.826986  1
  Sn  Sn10  1  0.666595  0.666745  0.000000  1
  Sn  Sn11  1  0.333377  0.333259  0.000000  1
  Sn  Sn12  1  0.666507  0.666804  0.500000  1
