# generated using pymatgen
data_Yb5Bi2PbAu
_symmetry_space_group_name_H-M   'P 1'
_cell_length_a   9.30771900
_cell_length_b   9.44746573
_cell_length_c   7.09072900
_cell_angle_alpha   90.00000000
_cell_angle_beta   90.00000000
_cell_angle_gamma   119.51189021
_symmetry_Int_Tables_number   1
_chemical_formula_structural   Yb5Bi2PbAu
_chemical_formula_sum   'Yb10 Bi4 Pb2 Au2'
_cell_volume   542.61931465
_cell_formula_units_Z   2
loop_
 _symmetry_equiv_pos_site_id
 _symmetry_equiv_pos_as_xyz
  1  'x, y, z'
loop_
 _atom_site_type_symbol
 _atom_site_label
 _atom_site_symmetry_multiplicity
 _atom_site_fract_x
 _atom_site_fract_y
 _atom_site_fract_z
 _atom_site_occupancy
  Yb  Yb0  1  0.751769  0.000000  0.750000  1
  Yb  Yb1  1  0.995300  0.258107  0.250000  1
  Yb  Yb2  1  0.737193  0.741893  0.250000  1
  Yb  Yb3  1  0.331130  0.662262  0.500000  1
  Yb  Yb4  1  0.331130  0.662262  0.000000  1
  Yb  Yb5  1  0.668870  0.337738  0.500000  1
  Yb  Yb6  1  0.668870  0.337738  0.000000  1
  Yb  Yb7  1  0.248231  0.000000  0.250000  1
  Yb  Yb8  1  0.262807  0.258107  0.750000  1
  Yb  Yb9  1  0.004700  0.741893  0.750000  1
  Bi  Bi10  1  0.998119  0.611800  0.250000  1
  Bi  Bi11  1  0.613682  0.611800  0.750000  1
  Bi  Bi12  1  0.001881  0.388200  0.750000  1
  Bi  Bi13  1  0.386318  0.388200  0.250000  1
  Pb  Pb14  1  0.413140  0.000000  0.750000  1
  Pb  Pb15  1  0.586860  0.000000  0.250000  1
  Au  Au16  1  0.000000  0.000000  0.500000  1
  Au  Au17  1  0.000000  0.000000  0.000000  1
