# generated using pymatgen
data_Zr10Be2Sn5Bi
_symmetry_space_group_name_H-M   'P 1'
_cell_length_a   8.66998717
_cell_length_b   8.66998830
_cell_length_c   5.82431300
_cell_angle_alpha   90.00000000
_cell_angle_beta   90.00000000
_cell_angle_gamma   119.95813315
_symmetry_Int_Tables_number   1
_chemical_formula_structural   Zr10Be2Sn5Bi
_chemical_formula_sum   'Zr10 Be2 Sn5 Bi1'
_cell_volume   379.31094009
_cell_formula_units_Z   1
loop_
 _symmetry_equiv_pos_site_id
 _symmetry_equiv_pos_as_xyz
  1  'x, y, z'
loop_
 _atom_site_type_symbol
 _atom_site_label
 _atom_site_symmetry_multiplicity
 _atom_site_fract_x
 _atom_site_fract_y
 _atom_site_fract_z
 _atom_site_occupancy
  Zr  Zr0  1  0.668797  0.332725  0.001588  1
  Zr  Zr1  1  0.332725  0.668797  0.001588  1
  Zr  Zr2  1  0.332725  0.668797  0.498412  1
  Zr  Zr3  1  0.668797  0.332725  0.498412  1
  Zr  Zr4  1  0.750412  0.750412  0.750000  1
  Zr  Zr5  1  0.250337  0.995668  0.750000  1
  Zr  Zr6  1  0.995668  0.250337  0.750000  1
  Zr  Zr7  1  0.251565  0.251565  0.250000  1
  Zr  Zr8  1  0.747515  0.000609  0.250000  1
  Zr  Zr9  1  0.000609  0.747515  0.250000  1
  Be  Be10  1  0.999814  0.999814  0.000918  1
  Be  Be11  1  0.999814  0.999814  0.499082  1
  Sn  Sn12  1  0.609531  0.999376  0.750000  1
  Sn  Sn13  1  0.999376  0.609531  0.750000  1
  Sn  Sn14  1  0.612258  0.612258  0.250000  1
  Sn  Sn15  1  0.389673  0.000907  0.250000  1
  Sn  Sn16  1  0.000907  0.389673  0.250000  1
  Bi  Bi17  1  0.389476  0.389476  0.750000  1
