# generated using pymatgen
data_Yb3Ce2Pb3Br
_symmetry_space_group_name_H-M   'P 1'
_cell_length_a   9.59333000
_cell_length_b   9.59333094
_cell_length_c   6.75988300
_cell_angle_alpha   90.00000000
_cell_angle_beta   90.00000000
_cell_angle_gamma   120.00000364
_symmetry_Int_Tables_number   1
_chemical_formula_structural   Yb3Ce2Pb3Br
_chemical_formula_sum   'Yb6 Ce4 Pb6 Br2'
_cell_volume   538.77645165
_cell_formula_units_Z   2
loop_
 _symmetry_equiv_pos_site_id
 _symmetry_equiv_pos_as_xyz
  1  'x, y, z'
loop_
 _atom_site_type_symbol
 _atom_site_label
 _atom_site_symmetry_multiplicity
 _atom_site_fract_x
 _atom_site_fract_y
 _atom_site_fract_z
 _atom_site_occupancy
  Yb  Yb0  1  0.738017  0.000000  0.750000  1
  Yb  Yb1  1  0.000000  0.261983  0.250000  1
  Yb  Yb2  1  0.738017  0.738017  0.250000  1
  Yb  Yb3  1  0.261983  0.000000  0.250000  1
  Yb  Yb4  1  0.261983  0.261983  0.750000  1
  Yb  Yb5  1  0.000000  0.738017  0.750000  1
  Ce  Ce6  1  0.333333  0.666667  0.500000  1
  Ce  Ce7  1  0.333333  0.666667  0.000000  1
  Ce  Ce8  1  0.666667  0.333333  0.500000  1
  Ce  Ce9  1  0.666667  0.333333  0.000000  1
  Pb  Pb10  1  0.394758  0.000000  0.750000  1
  Pb  Pb11  1  0.605242  0.000000  0.250000  1
  Pb  Pb12  1  0.000000  0.605242  0.250000  1
  Pb  Pb13  1  0.605242  0.605242  0.750000  1
  Pb  Pb14  1  0.000000  0.394758  0.750000  1
  Pb  Pb15  1  0.394758  0.394758  0.250000  1
  Br  Br16  1  0.000000  0.000000  0.500000  1
  Br  Br17  1  0.000000  0.000000  0.000000  1
