# generated using pymatgen
data_SrLa(SbPd)4
_symmetry_space_group_name_H-M   'P 1'
_cell_length_a   4.67386700
_cell_length_b   4.67386700
_cell_length_c   10.83020900
_cell_angle_alpha   90.00000000
_cell_angle_beta   90.00000000
_cell_angle_gamma   90.00000000
_symmetry_Int_Tables_number   1
_chemical_formula_structural   SrLa(SbPd)4
_chemical_formula_sum   'Sr1 La1 Sb4 Pd4'
_cell_volume   236.58627012
_cell_formula_units_Z   1
loop_
 _symmetry_equiv_pos_site_id
 _symmetry_equiv_pos_as_xyz
  1  'x, y, z'
loop_
 _atom_site_type_symbol
 _atom_site_label
 _atom_site_symmetry_multiplicity
 _atom_site_fract_x
 _atom_site_fract_y
 _atom_site_fract_z
 _atom_site_occupancy
  Sr  Sr0  1  0.000000  0.500000  0.241090  1
  La  La1  1  0.500000  0.000000  0.757829  1
  Sb  Sb2  1  0.000000  0.000000  0.502263  1
  Sb  Sb3  1  0.500000  0.500000  0.502263  1
  Sb  Sb4  1  0.500000  0.000000  0.128246  1
  Sb  Sb5  1  0.000000  0.500000  0.871880  1
  Pd  Pd6  1  0.000000  0.000000  0.996682  1
  Pd  Pd7  1  0.500000  0.500000  0.996682  1
  Pd  Pd8  1  0.500000  0.000000  0.372527  1
  Pd  Pd9  1  0.000000  0.500000  0.630538  1
