# generated using pymatgen
data_Tb6Y4GaBi5
_symmetry_space_group_name_H-M   'P 1'
_cell_length_a   9.11981253
_cell_length_b   9.11981125
_cell_length_c   6.43984300
_cell_angle_alpha   90.00000000
_cell_angle_beta   90.00000000
_cell_angle_gamma   119.73454174
_symmetry_Int_Tables_number   1
_chemical_formula_structural   Tb6Y4GaBi5
_chemical_formula_sum   'Tb6 Y4 Ga1 Bi5'
_cell_volume   465.08590430
_cell_formula_units_Z   1
loop_
 _symmetry_equiv_pos_site_id
 _symmetry_equiv_pos_as_xyz
  1  'x, y, z'
loop_
 _atom_site_type_symbol
 _atom_site_label
 _atom_site_symmetry_multiplicity
 _atom_site_fract_x
 _atom_site_fract_y
 _atom_site_fract_z
 _atom_site_occupancy
  Tb  Tb0  1  0.657716  0.335681  0.996590  1
  Tb  Tb1  1  0.335681  0.657716  0.996590  1
  Tb  Tb2  1  0.335681  0.657716  0.503410  1
  Tb  Tb3  1  0.657716  0.335681  0.503410  1
  Tb  Tb4  1  0.758652  0.000633  0.250000  1
  Tb  Tb5  1  0.000633  0.758652  0.250000  1
  Y  Y6  1  0.749182  0.749182  0.750000  1
  Y  Y7  1  0.244905  0.014623  0.750000  1
  Y  Y8  1  0.014623  0.244905  0.750000  1
  Y  Y9  1  0.242508  0.242508  0.250000  1
  Ga  Ga10  1  0.392795  0.392795  0.750000  1
  Bi  Bi11  1  0.612082  0.002834  0.750000  1
  Bi  Bi12  1  0.002834  0.612082  0.750000  1
  Bi  Bi13  1  0.609177  0.609177  0.250000  1
  Bi  Bi14  1  0.390397  0.995417  0.250000  1
  Bi  Bi15  1  0.995417  0.390397  0.250000  1
