# generated using pymatgen
data_EuSnGePd2
_symmetry_space_group_name_H-M   'P 1'
_cell_length_a   4.47062000
_cell_length_b   4.47062000
_cell_length_c   10.60521300
_cell_angle_alpha   90.00000000
_cell_angle_beta   90.00000000
_cell_angle_gamma   90.00000000
_symmetry_Int_Tables_number   1
_chemical_formula_structural   EuSnGePd2
_chemical_formula_sum   'Eu2 Sn2 Ge2 Pd4'
_cell_volume   211.96048708
_cell_formula_units_Z   2
loop_
 _symmetry_equiv_pos_site_id
 _symmetry_equiv_pos_as_xyz
  1  'x, y, z'
loop_
 _atom_site_type_symbol
 _atom_site_label
 _atom_site_symmetry_multiplicity
 _atom_site_fract_x
 _atom_site_fract_y
 _atom_site_fract_z
 _atom_site_occupancy
  Eu  Eu0  1  0.000000  0.500000  0.234538  1
  Eu  Eu1  1  0.500000  0.000000  0.765462  1
  Sn  Sn2  1  0.000000  0.000000  0.500000  1
  Sn  Sn3  1  0.500000  0.500000  0.500000  1
  Ge  Ge4  1  0.000000  0.500000  0.884789  1
  Ge  Ge5  1  0.500000  0.000000  0.115211  1
  Pd  Pd6  1  0.000000  0.500000  0.651562  1
  Pd  Pd7  1  0.500000  0.000000  0.348438  1
  Pd  Pd8  1  0.000000  0.000000  0.000000  1
  Pd  Pd9  1  0.500000  0.500000  0.000000  1
