# generated using pymatgen
data_BaCa(SbAu)2
_symmetry_space_group_name_H-M   'P 1'
_cell_length_a   4.77932600
_cell_length_b   4.77932573
_cell_length_c   8.76627200
_cell_angle_alpha   90.00000000
_cell_angle_beta   90.00000000
_cell_angle_gamma   119.99998799
_symmetry_Int_Tables_number   1
_chemical_formula_structural   BaCa(SbAu)2
_chemical_formula_sum   'Ba1 Ca1 Sb2 Au2'
_cell_volume   173.41190608
_cell_formula_units_Z   1
loop_
 _symmetry_equiv_pos_site_id
 _symmetry_equiv_pos_as_xyz
  1  'x, y, z'
loop_
 _atom_site_type_symbol
 _atom_site_label
 _atom_site_symmetry_multiplicity
 _atom_site_fract_x
 _atom_site_fract_y
 _atom_site_fract_z
 _atom_site_occupancy
  Ba  Ba0  1  0.000000  0.000000  0.500000  1
  Ca  Ca1  1  0.000000  0.000000  0.000000  1
  Sb  Sb2  1  0.666667  0.333333  0.234322  1
  Sb  Sb3  1  0.333333  0.666667  0.765678  1
  Au  Au4  1  0.333333  0.666667  0.208371  1
  Au  Au5  1  0.666667  0.333333  0.791629  1
