# generated using pymatgen
data_InBiBRh6
_symmetry_space_group_name_H-M   'P 1'
_cell_length_a   5.78248893
_cell_length_b   5.78248972
_cell_length_c   5.78249000
_cell_angle_alpha   59.99999840
_cell_angle_beta   59.99999387
_cell_angle_gamma   59.99999714
_symmetry_Int_Tables_number   1
_chemical_formula_structural   InBiBRh6
_chemical_formula_sum   'In1 Bi1 B1 Rh6'
_cell_volume   136.71920902
_cell_formula_units_Z   1
loop_
 _symmetry_equiv_pos_site_id
 _symmetry_equiv_pos_as_xyz
  1  'x, y, z'
loop_
 _atom_site_type_symbol
 _atom_site_label
 _atom_site_symmetry_multiplicity
 _atom_site_fract_x
 _atom_site_fract_y
 _atom_site_fract_z
 _atom_site_occupancy
  In  In0  1  0.750000  0.750000  0.750000  1
  Bi  Bi1  1  0.250000  0.250000  0.250000  1
  B  B2  1  0.500000  0.500000  0.500000  1
  Rh  Rh3  1  0.755864  0.244135  0.244135  1
  Rh  Rh4  1  0.244135  0.755864  0.244135  1
  Rh  Rh5  1  0.755864  0.755864  0.244135  1
  Rh  Rh6  1  0.244135  0.244135  0.755864  1
  Rh  Rh7  1  0.755864  0.244135  0.755864  1
  Rh  Rh8  1  0.244135  0.755864  0.755864  1
