# generated using pymatgen
data_DyTh(SbTe)2
_symmetry_space_group_name_H-M   'P 1'
_cell_length_a   4.37259400
_cell_length_b   4.37259400
_cell_length_c   9.24363600
_cell_angle_alpha   90.00000000
_cell_angle_beta   90.00000000
_cell_angle_gamma   90.00000000
_symmetry_Int_Tables_number   1
_chemical_formula_structural   DyTh(SbTe)2
_chemical_formula_sum   'Dy1 Th1 Sb2 Te2'
_cell_volume   176.73442218
_cell_formula_units_Z   1
loop_
 _symmetry_equiv_pos_site_id
 _symmetry_equiv_pos_as_xyz
  1  'x, y, z'
loop_
 _atom_site_type_symbol
 _atom_site_label
 _atom_site_symmetry_multiplicity
 _atom_site_fract_x
 _atom_site_fract_y
 _atom_site_fract_z
 _atom_site_occupancy
  Dy  Dy0  1  0.000000  0.500000  0.733205  1
  Th  Th1  1  0.500000  0.000000  0.268086  1
  Sb  Sb2  1  0.000000  0.000000  0.996974  1
  Sb  Sb3  1  0.500000  0.500000  0.996974  1
  Te  Te4  1  0.000000  0.500000  0.375865  1
  Te  Te5  1  0.500000  0.000000  0.628896  1
