# generated using pymatgen
data_Tb4Sn2Sb4Rh7
_symmetry_space_group_name_H-M   'P 1'
_cell_length_a   7.63003114
_cell_length_b   7.63003302
_cell_length_c   7.62852594
_cell_angle_alpha   109.51756245
_cell_angle_beta   109.51756333
_cell_angle_gamma   109.38658753
_symmetry_Int_Tables_number   1
_chemical_formula_structural   Tb4Sn2Sb4Rh7
_chemical_formula_sum   'Tb4 Sn2 Sb4 Rh7'
_cell_volume   341.84382242
_cell_formula_units_Z   1
loop_
 _symmetry_equiv_pos_site_id
 _symmetry_equiv_pos_as_xyz
  1  'x, y, z'
loop_
 _atom_site_type_symbol
 _atom_site_label
 _atom_site_symmetry_multiplicity
 _atom_site_fract_x
 _atom_site_fract_y
 _atom_site_fract_z
 _atom_site_occupancy
  Tb  Tb0  1  0.497902  0.000258  0.000000  1
  Tb  Tb1  1  0.999742  0.502098  0.000000  1
  Tb  Tb2  1  0.999333  0.000667  0.500000  1
  Tb  Tb3  1  0.499333  0.500667  0.500000  1
  Sn  Sn4  1  0.998678  0.315184  0.313862  1
  Sn  Sn5  1  0.684816  0.001322  0.686138  1
  Sb  Sb6  1  0.681848  0.684148  0.000000  1
  Sb  Sb7  1  0.998735  0.678385  0.677119  1
  Sb  Sb8  1  0.321615  0.001265  0.322881  1
  Sb  Sb9  1  0.315852  0.318152  0.000000  1
  Rh  Rh10  1  0.004026  0.995974  0.000000  1
  Rh  Rh11  1  0.500015  0.749927  0.249942  1
  Rh  Rh12  1  0.747858  0.499809  0.247667  1
  Rh  Rh13  1  0.249991  0.750009  0.500000  1
  Rh  Rh14  1  0.250073  0.499985  0.750058  1
  Rh  Rh15  1  0.500191  0.252142  0.752333  1
  Rh  Rh16  1  0.749991  0.250009  0.500000  1
