# generated using pymatgen
data_Er2Lu2Zn4Si3Ge
_symmetry_space_group_name_H-M   'P 1'
_cell_length_a   4.15527900
_cell_length_b   4.15527897
_cell_length_c   15.21922000
_cell_angle_alpha   90.00000000
_cell_angle_beta   90.00000000
_cell_angle_gamma   119.99997639
_symmetry_Int_Tables_number   1
_chemical_formula_structural   Er2Lu2Zn4Si3Ge
_chemical_formula_sum   'Er2 Lu2 Zn4 Si3 Ge1'
_cell_volume   227.57445151
_cell_formula_units_Z   1
loop_
 _symmetry_equiv_pos_site_id
 _symmetry_equiv_pos_as_xyz
  1  'x, y, z'
loop_
 _atom_site_type_symbol
 _atom_site_label
 _atom_site_symmetry_multiplicity
 _atom_site_fract_x
 _atom_site_fract_y
 _atom_site_fract_z
 _atom_site_occupancy
  Er  Er0  1  0.000000  0.000000  0.002068  1
  Er  Er1  1  0.000000  0.000000  0.499585  1
  Lu  Lu2  1  0.000000  0.000000  0.250369  1
  Lu  Lu3  1  0.000000  0.000000  0.747836  1
  Zn  Zn4  1  0.333333  0.666667  0.143503  1
  Zn  Zn5  1  0.666667  0.333333  0.852513  1
  Zn  Zn6  1  0.666667  0.333333  0.641799  1
  Zn  Zn7  1  0.333333  0.666667  0.357331  1
  Si  Si8  1  0.333333  0.666667  0.617457  1
  Si  Si9  1  0.666667  0.333333  0.382409  1
  Si  Si10  1  0.666667  0.333333  0.118479  1
  Ge  Ge11  1  0.333333  0.666667  0.886651  1
