# generated using pymatgen
data_Zr8Ti2ZnGeSb6
_symmetry_space_group_name_H-M   'P 1'
_cell_length_a   8.61475100
_cell_length_b   8.61475107
_cell_length_c   5.79254300
_cell_angle_alpha   90.00000000
_cell_angle_beta   90.00000000
_cell_angle_gamma   120.00000359
_symmetry_Int_Tables_number   1
_chemical_formula_structural   Zr8Ti2ZnGeSb6
_chemical_formula_sum   'Zr8 Ti2 Zn1 Ge1 Sb6'
_cell_volume   372.29340587
_cell_formula_units_Z   1
loop_
 _symmetry_equiv_pos_site_id
 _symmetry_equiv_pos_as_xyz
  1  'x, y, z'
loop_
 _atom_site_type_symbol
 _atom_site_label
 _atom_site_symmetry_multiplicity
 _atom_site_fract_x
 _atom_site_fract_y
 _atom_site_fract_z
 _atom_site_occupancy
  Zr  Zr0  1  0.333333  0.666667  0.500000  1
  Zr  Zr1  1  0.666667  0.333333  0.500000  1
  Zr  Zr2  1  0.732849  0.732849  0.747462  1
  Zr  Zr3  1  0.267151  0.000000  0.747462  1
  Zr  Zr4  1  0.000000  0.267151  0.747462  1
  Zr  Zr5  1  0.267151  0.267151  0.252538  1
  Zr  Zr6  1  0.732849  0.000000  0.252538  1
  Zr  Zr7  1  0.000000  0.732849  0.252538  1
  Ti  Ti8  1  0.666667  0.333333  0.000000  1
  Ti  Ti9  1  0.333333  0.666667  0.000000  1
  Zn  Zn10  1  0.000000  0.000000  0.000000  1
  Ge  Ge11  1  0.000000  0.000000  0.500000  1
  Sb  Sb12  1  0.391939  0.391939  0.758911  1
  Sb  Sb13  1  0.608061  0.000000  0.758911  1
  Sb  Sb14  1  0.000000  0.608061  0.758911  1
  Sb  Sb15  1  0.608061  0.608061  0.241089  1
  Sb  Sb16  1  0.391939  0.000000  0.241089  1
  Sb  Sb17  1  0.000000  0.391939  0.241089  1
