# generated using pymatgen
data_Yb3GaAg3P2
_symmetry_space_group_name_H-M   'P 1'
_cell_length_a   7.07201100
_cell_length_b   7.07201159
_cell_length_c   4.12995200
_cell_angle_alpha   90.00000000
_cell_angle_beta   90.00000000
_cell_angle_gamma   120.00001126
_symmetry_Int_Tables_number   1
_chemical_formula_structural   Yb3GaAg3P2
_chemical_formula_sum   'Yb3 Ga1 Ag3 P2'
_cell_volume   178.87987304
_cell_formula_units_Z   1
loop_
 _symmetry_equiv_pos_site_id
 _symmetry_equiv_pos_as_xyz
  1  'x, y, z'
loop_
 _atom_site_type_symbol
 _atom_site_label
 _atom_site_symmetry_multiplicity
 _atom_site_fract_x
 _atom_site_fract_y
 _atom_site_fract_z
 _atom_site_occupancy
  Yb  Yb0  1  0.000000  0.572967  0.500000  1
  Yb  Yb1  1  0.572967  0.000000  0.500000  1
  Yb  Yb2  1  0.427033  0.427033  0.500000  1
  Ga  Ga3  1  0.000000  0.000000  0.500000  1
  Ag  Ag4  1  0.748336  0.748336  0.000000  1
  Ag  Ag5  1  0.251664  0.000000  0.000000  1
  Ag  Ag6  1  0.000000  0.251664  0.000000  1
  P  P7  1  0.666667  0.333333  0.000000  1
  P  P8  1  0.333333  0.666667  0.000000  1
