# generated using pymatgen
data_LiInBi(P3Pd10)2
_symmetry_space_group_name_H-M   'P 1'
_cell_length_a   8.63063684
_cell_length_b   8.63063617
_cell_length_c   8.63063800
_cell_angle_alpha   60.00000066
_cell_angle_beta   60.00000323
_cell_angle_gamma   60.00000180
_symmetry_Int_Tables_number   1
_chemical_formula_structural   LiInBi(P3Pd10)2
_chemical_formula_sum   'Li1 In1 Bi1 P6 Pd20'
_cell_volume   454.58340153
_cell_formula_units_Z   1
loop_
 _symmetry_equiv_pos_site_id
 _symmetry_equiv_pos_as_xyz
  1  'x, y, z'
loop_
 _atom_site_type_symbol
 _atom_site_label
 _atom_site_symmetry_multiplicity
 _atom_site_fract_x
 _atom_site_fract_y
 _atom_site_fract_z
 _atom_site_occupancy
  Li  Li0  1  0.000000  0.000000  0.000000  1
  In  In1  1  0.250000  0.250000  0.250000  1
  Bi  Bi2  1  0.750000  0.750000  0.750000  1
  P  P3  1  0.737696  0.262304  0.262304  1
  P  P4  1  0.262304  0.737696  0.737696  1
  P  P5  1  0.262304  0.737696  0.262304  1
  P  P6  1  0.737696  0.262304  0.737696  1
  P  P7  1  0.262304  0.262304  0.737696  1
  P  P8  1  0.737696  0.737696  0.262304  1
  Pd  Pd9  1  0.381513  0.381513  0.381513  1
  Pd  Pd10  1  0.614553  0.614553  0.614553  1
  Pd  Pd11  1  0.381513  0.381513  0.855464  1
  Pd  Pd12  1  0.381513  0.855464  0.381513  1
  Pd  Pd13  1  0.614553  0.614553  0.156342  1
  Pd  Pd14  1  0.614553  0.156342  0.614553  1
  Pd  Pd15  1  0.855464  0.381513  0.381513  1
  Pd  Pd16  1  0.156342  0.614553  0.614553  1
  Pd  Pd17  1  0.342729  0.000049  0.000049  1
  Pd  Pd18  1  0.657174  0.000049  0.000049  1
  Pd  Pd19  1  0.000049  0.342729  0.657174  1
  Pd  Pd20  1  0.000049  0.657174  0.342729  1
  Pd  Pd21  1  0.000049  0.342729  0.000049  1
  Pd  Pd22  1  0.657174  0.000049  0.342729  1
  Pd  Pd23  1  0.000049  0.657174  0.000049  1
  Pd  Pd24  1  0.342729  0.000049  0.657174  1
  Pd  Pd25  1  0.000049  0.000049  0.342729  1
  Pd  Pd26  1  0.000049  0.000049  0.657174  1
  Pd  Pd27  1  0.657174  0.342729  0.000049  1
  Pd  Pd28  1  0.342729  0.657174  0.000049  1
