# generated using pymatgen
data_Zr10TlZn2Bi3Pb2
_symmetry_space_group_name_H-M   'P 1'
_cell_length_a   8.86092902
_cell_length_b   8.86092897
_cell_length_c   5.94363600
_cell_angle_alpha   90.00000000
_cell_angle_beta   90.00000000
_cell_angle_gamma   120.05142117
_symmetry_Int_Tables_number   1
_chemical_formula_structural   Zr10TlZn2Bi3Pb2
_chemical_formula_sum   'Zr10 Tl1 Zn2 Bi3 Pb2'
_cell_volume   403.93927757
_cell_formula_units_Z   1
loop_
 _symmetry_equiv_pos_site_id
 _symmetry_equiv_pos_as_xyz
  1  'x, y, z'
loop_
 _atom_site_type_symbol
 _atom_site_label
 _atom_site_symmetry_multiplicity
 _atom_site_fract_x
 _atom_site_fract_y
 _atom_site_fract_z
 _atom_site_occupancy
  Zr  Zr0  1  0.666983  0.333816  0.002201  1
  Zr  Zr1  1  0.333816  0.666983  0.002201  1
  Zr  Zr2  1  0.333816  0.666983  0.497799  1
  Zr  Zr3  1  0.666983  0.333816  0.497799  1
  Zr  Zr4  1  0.735440  0.735440  0.750000  1
  Zr  Zr5  1  0.264330  0.000143  0.750000  1
  Zr  Zr6  1  0.000143  0.264330  0.750000  1
  Zr  Zr7  1  0.268135  0.268135  0.250000  1
  Zr  Zr8  1  0.731989  0.997932  0.250000  1
  Zr  Zr9  1  0.997932  0.731989  0.250000  1
  Tl  Tl10  1  0.617505  0.617505  0.250000  1
  Zn  Zn11  1  0.999490  0.999490  0.004852  1
  Zn  Zn12  1  0.999490  0.999490  0.495148  1
  Bi  Bi13  1  0.387110  0.387110  0.750000  1
  Bi  Bi14  1  0.614125  0.999952  0.750000  1
  Bi  Bi15  1  0.999952  0.614125  0.750000  1
  Pb  Pb16  1  0.382853  0.999908  0.250000  1
  Pb  Pb17  1  0.999908  0.382853  0.250000  1
