# generated using pymatgen
data_Dy4Bi3Sb
_symmetry_space_group_name_H-M   'P 1'
_cell_length_a   7.71468784
_cell_length_b   7.71468756
_cell_length_c   7.71468779
_cell_angle_alpha   131.81346020
_cell_angle_beta   131.81345710
_cell_angle_gamma   70.52380881
_symmetry_Int_Tables_number   1
_chemical_formula_structural   Dy4Bi3Sb
_chemical_formula_sum   'Dy4 Bi3 Sb1'
_cell_volume   249.90687300
_cell_formula_units_Z   1
loop_
 _symmetry_equiv_pos_site_id
 _symmetry_equiv_pos_as_xyz
  1  'x, y, z'
loop_
 _atom_site_type_symbol
 _atom_site_label
 _atom_site_symmetry_multiplicity
 _atom_site_fract_x
 _atom_site_fract_y
 _atom_site_fract_z
 _atom_site_occupancy
  Dy  Dy0  1  0.246747  0.246747  0.000000  1
  Dy  Dy1  1  0.753253  0.753253  0.000000  1
  Dy  Dy2  1  0.500000  0.000000  0.500000  1
  Dy  Dy3  1  0.000000  0.500000  0.500000  1
  Bi  Bi4  1  0.500000  0.500000  0.000000  1
  Bi  Bi5  1  0.750000  0.250000  0.500000  1
  Bi  Bi6  1  0.250000  0.750000  0.500000  1
  Sb  Sb7  1  0.000000  0.000000  0.000000  1
