# generated using pymatgen
data_Eu2Co2SbAs3Pd2
_symmetry_space_group_name_H-M   'P 1'
_cell_length_a   4.35287000
_cell_length_b   4.35287000
_cell_length_c   9.87243400
_cell_angle_alpha   90.00000000
_cell_angle_beta   90.00000000
_cell_angle_gamma   90.00000000
_symmetry_Int_Tables_number   1
_chemical_formula_structural   Eu2Co2SbAs3Pd2
_chemical_formula_sum   'Eu2 Co2 Sb1 As3 Pd2'
_cell_volume   187.05771849
_cell_formula_units_Z   1
loop_
 _symmetry_equiv_pos_site_id
 _symmetry_equiv_pos_as_xyz
  1  'x, y, z'
loop_
 _atom_site_type_symbol
 _atom_site_label
 _atom_site_symmetry_multiplicity
 _atom_site_fract_x
 _atom_site_fract_y
 _atom_site_fract_z
 _atom_site_occupancy
  Eu  Eu0  1  0.500000  0.000000  0.268485  1
  Eu  Eu1  1  0.000000  0.500000  0.739239  1
  Co  Co2  1  0.500000  0.000000  0.605772  1
  Co  Co3  1  0.000000  0.500000  0.406270  1
  Sb  Sb4  1  0.000000  0.500000  0.152792  1
  As  As5  1  0.000000  0.000000  0.504578  1
  As  As6  1  0.500000  0.500000  0.504578  1
  As  As7  1  0.500000  0.000000  0.840331  1
  Pd  Pd8  1  0.000000  0.000000  0.988977  1
  Pd  Pd9  1  0.500000  0.500000  0.988977  1
