# generated using pymatgen
data_Ac2CdAgSn2
_symmetry_space_group_name_H-M   'P 1'
_cell_length_a   5.00801300
_cell_length_b   5.00801320
_cell_length_c   8.34163500
_cell_angle_alpha   90.00000000
_cell_angle_beta   90.00000000
_cell_angle_gamma   119.99999207
_symmetry_Int_Tables_number   1
_chemical_formula_structural   Ac2CdAgSn2
_chemical_formula_sum   'Ac2 Cd1 Ag1 Sn2'
_cell_volume   181.18104558
_cell_formula_units_Z   1
loop_
 _symmetry_equiv_pos_site_id
 _symmetry_equiv_pos_as_xyz
  1  'x, y, z'
loop_
 _atom_site_type_symbol
 _atom_site_label
 _atom_site_symmetry_multiplicity
 _atom_site_fract_x
 _atom_site_fract_y
 _atom_site_fract_z
 _atom_site_occupancy
  Ac  Ac0  1  0.000000  0.000000  0.737533  1
  Ac  Ac1  1  0.000000  0.000000  0.253194  1
  Cd  Cd2  1  0.333333  0.666667  0.022992  1
  Ag  Ag3  1  0.666667  0.333333  0.514244  1
  Sn  Sn4  1  0.666667  0.333333  0.980887  1
  Sn  Sn5  1  0.333333  0.666667  0.485150  1
