# generated using pymatgen
data_Y6Ho4(InBi)3
_symmetry_space_group_name_H-M   'P 1'
_cell_length_a   9.05639400
_cell_length_b   9.05639240
_cell_length_c   6.59564000
_cell_angle_alpha   90.00000000
_cell_angle_beta   90.00000000
_cell_angle_gamma   119.99999854
_symmetry_Int_Tables_number   1
_chemical_formula_structural   Y6Ho4(InBi)3
_chemical_formula_sum   'Y6 Ho4 In3 Bi3'
_cell_volume   468.48762236
_cell_formula_units_Z   1
loop_
 _symmetry_equiv_pos_site_id
 _symmetry_equiv_pos_as_xyz
  1  'x, y, z'
loop_
 _atom_site_type_symbol
 _atom_site_label
 _atom_site_symmetry_multiplicity
 _atom_site_fract_x
 _atom_site_fract_y
 _atom_site_fract_z
 _atom_site_occupancy
  Y  Y0  1  0.762416  0.762416  0.750000  1
  Y  Y1  1  0.237584  0.000000  0.750000  1
  Y  Y2  1  0.000000  0.237584  0.750000  1
  Y  Y3  1  0.239576  0.239576  0.250000  1
  Y  Y4  1  0.760424  0.000000  0.250000  1
  Y  Y5  1  0.000000  0.760424  0.250000  1
  Ho  Ho6  1  0.666667  0.333333  0.007546  1
  Ho  Ho7  1  0.333333  0.666667  0.007546  1
  Ho  Ho8  1  0.333333  0.666667  0.492454  1
  Ho  Ho9  1  0.666667  0.333333  0.492454  1
  In  In10  1  0.605761  0.605761  0.250000  1
  In  In11  1  0.394239  0.000000  0.250000  1
  In  In12  1  0.000000  0.394239  0.250000  1
  Bi  Bi13  1  0.396315  0.396315  0.750000  1
  Bi  Bi14  1  0.603685  0.000000  0.750000  1
  Bi  Bi15  1  0.000000  0.603685  0.750000  1
