# generated using pymatgen
data_Yb10Bi6Se
_symmetry_space_group_name_H-M   'P 1'
_cell_length_a   9.45702400
_cell_length_b   9.45702534
_cell_length_c   6.60465000
_cell_angle_alpha   90.00000000
_cell_angle_beta   90.00000000
_cell_angle_gamma   120.00000230
_symmetry_Int_Tables_number   1
_chemical_formula_structural   Yb10Bi6Se
_chemical_formula_sum   'Yb10 Bi6 Se1'
_cell_volume   511.55163092
_cell_formula_units_Z   1
loop_
 _symmetry_equiv_pos_site_id
 _symmetry_equiv_pos_as_xyz
  1  'x, y, z'
loop_
 _atom_site_type_symbol
 _atom_site_label
 _atom_site_symmetry_multiplicity
 _atom_site_fract_x
 _atom_site_fract_y
 _atom_site_fract_z
 _atom_site_occupancy
  Yb  Yb0  1  0.333333  0.666667  0.500000  1
  Yb  Yb1  1  0.666667  0.333333  0.500000  1
  Yb  Yb2  1  0.666667  0.333333  0.000000  1
  Yb  Yb3  1  0.333333  0.666667  0.000000  1
  Yb  Yb4  1  0.000000  0.741797  0.263595  1
  Yb  Yb5  1  0.258203  0.258203  0.263595  1
  Yb  Yb6  1  0.741797  0.000000  0.263595  1
  Yb  Yb7  1  0.000000  0.258203  0.736405  1
  Yb  Yb8  1  0.741797  0.741797  0.736405  1
  Yb  Yb9  1  0.258203  0.000000  0.736405  1
  Bi  Bi10  1  0.000000  0.387504  0.249593  1
  Bi  Bi11  1  0.612496  0.612496  0.249593  1
  Bi  Bi12  1  0.387504  0.000000  0.249593  1
  Bi  Bi13  1  0.000000  0.612496  0.750407  1
  Bi  Bi14  1  0.387504  0.387504  0.750407  1
  Bi  Bi15  1  0.612496  0.000000  0.750407  1
  Se  Se16  1  0.000000  0.000000  0.500000  1
