# generated using pymatgen
data_Hf6Sn6Ir4RuRh
_symmetry_space_group_name_H-M   'P 1'
_cell_length_a   7.41624600
_cell_length_b   7.41624512
_cell_length_c   7.20010400
_cell_angle_alpha   90.00000000
_cell_angle_beta   90.00000000
_cell_angle_gamma   119.99999500
_symmetry_Int_Tables_number   1
_chemical_formula_structural   Hf6Sn6Ir4RuRh
_chemical_formula_sum   'Hf6 Sn6 Ir4 Ru1 Rh1'
_cell_volume   342.95538458
_cell_formula_units_Z   1
loop_
 _symmetry_equiv_pos_site_id
 _symmetry_equiv_pos_as_xyz
  1  'x, y, z'
loop_
 _atom_site_type_symbol
 _atom_site_label
 _atom_site_symmetry_multiplicity
 _atom_site_fract_x
 _atom_site_fract_y
 _atom_site_fract_z
 _atom_site_occupancy
  Hf  Hf0  1  0.018648  0.403463  0.750000  1
  Hf  Hf1  1  0.596537  0.615185  0.750000  1
  Hf  Hf2  1  0.384815  0.981352  0.750000  1
  Hf  Hf3  1  0.977759  0.390668  0.250000  1
  Hf  Hf4  1  0.609332  0.587092  0.250000  1
  Hf  Hf5  1  0.412908  0.022241  0.250000  1
  Sn  Sn6  1  0.269922  0.269247  0.499985  1
  Sn  Sn7  1  0.999324  0.730078  0.499985  1
  Sn  Sn8  1  0.999324  0.730078  0.000015  1
  Sn  Sn9  1  0.730753  0.000676  0.499985  1
  Sn  Sn10  1  0.730753  0.000676  0.000015  1
  Sn  Sn11  1  0.269922  0.269247  0.000015  1
  Ir  Ir12  1  0.333333  0.666667  0.465883  1
  Ir  Ir13  1  0.666667  0.333333  0.538591  1
  Ir  Ir14  1  0.333333  0.666667  0.034117  1
  Ir  Ir15  1  0.666667  0.333333  0.961409  1
  Ru  Ru16  1  0.000000  0.000000  0.750000  1
  Rh  Rh17  1  0.000000  0.000000  0.250000  1
