# generated using pymatgen
data_ErTiNb5Sn6
_symmetry_space_group_name_H-M   'P 1'
_cell_length_a   5.78612610
_cell_length_b   5.78612716
_cell_length_c   9.61594700
_cell_angle_alpha   90.00000000
_cell_angle_beta   90.00000000
_cell_angle_gamma   119.74697491
_symmetry_Int_Tables_number   1
_chemical_formula_structural   ErTiNb5Sn6
_chemical_formula_sum   'Er1 Ti1 Nb5 Sn6'
_cell_volume   279.51184850
_cell_formula_units_Z   1
loop_
 _symmetry_equiv_pos_site_id
 _symmetry_equiv_pos_as_xyz
  1  'x, y, z'
loop_
 _atom_site_type_symbol
 _atom_site_label
 _atom_site_symmetry_multiplicity
 _atom_site_fract_x
 _atom_site_fract_y
 _atom_site_fract_z
 _atom_site_occupancy
  Er  Er0  1  0.000000  0.000000  0.002254  1
  Ti  Ti1  1  0.500000  0.500000  0.751465  1
  Nb  Nb2  1  0.500000  0.000000  0.751043  1
  Nb  Nb3  1  0.000000  0.500000  0.751043  1
  Nb  Nb4  1  0.500000  0.500000  0.249731  1
  Nb  Nb5  1  0.500000  0.000000  0.247202  1
  Nb  Nb6  1  0.000000  0.500000  0.247202  1
  Sn  Sn7  1  0.665418  0.334582  0.998349  1
  Sn  Sn8  1  0.334582  0.665418  0.998349  1
  Sn  Sn9  1  0.665915  0.334085  0.500425  1
  Sn  Sn10  1  0.334085  0.665915  0.500425  1
  Sn  Sn11  1  0.000000  0.000000  0.673701  1
  Sn  Sn12  1  0.000000  0.000000  0.328811  1
