# generated using pymatgen
data_Pu3ScBi5
_symmetry_space_group_name_H-M   'P 1'
_cell_length_a   9.55336000
_cell_length_b   9.55335961
_cell_length_c   6.49410200
_cell_angle_alpha   90.00000000
_cell_angle_beta   90.00000000
_cell_angle_gamma   120.00000135
_symmetry_Int_Tables_number   1
_chemical_formula_structural   Pu3ScBi5
_chemical_formula_sum   'Pu6 Sc2 Bi10'
_cell_volume   513.28905150
_cell_formula_units_Z   2
loop_
 _symmetry_equiv_pos_site_id
 _symmetry_equiv_pos_as_xyz
  1  'x, y, z'
loop_
 _atom_site_type_symbol
 _atom_site_label
 _atom_site_symmetry_multiplicity
 _atom_site_fract_x
 _atom_site_fract_y
 _atom_site_fract_z
 _atom_site_occupancy
  Pu  Pu0  1  0.000000  0.615387  0.250000  1
  Pu  Pu1  1  0.384613  0.384613  0.250000  1
  Pu  Pu2  1  0.384613  0.000000  0.750000  1
  Pu  Pu3  1  0.615387  0.615387  0.750000  1
  Pu  Pu4  1  0.615387  0.000000  0.250000  1
  Pu  Pu5  1  0.000000  0.384613  0.750000  1
  Sc  Sc6  1  0.000000  0.000000  0.000000  1
  Sc  Sc7  1  0.000000  0.000000  0.500000  1
  Bi  Bi8  1  0.000000  0.267754  0.250000  1
  Bi  Bi9  1  0.333333  0.666667  0.500000  1
  Bi  Bi10  1  0.666667  0.333333  0.000000  1
  Bi  Bi11  1  0.333333  0.666667  0.000000  1
  Bi  Bi12  1  0.267754  0.267754  0.750000  1
  Bi  Bi13  1  0.732246  0.000000  0.750000  1
  Bi  Bi14  1  0.000000  0.732246  0.750000  1
  Bi  Bi15  1  0.732246  0.732246  0.250000  1
  Bi  Bi16  1  0.267754  0.000000  0.250000  1
  Bi  Bi17  1  0.666667  0.333333  0.500000  1
