# generated using pymatgen
data_Er3Zr2Bi3Se
_symmetry_space_group_name_H-M   'P 1'
_cell_length_a   9.05617100
_cell_length_b   9.05617062
_cell_length_c   6.32196800
_cell_angle_alpha   90.00000000
_cell_angle_beta   90.00000000
_cell_angle_gamma   119.99999773
_symmetry_Int_Tables_number   1
_chemical_formula_structural   Er3Zr2Bi3Se
_chemical_formula_sum   'Er6 Zr4 Bi6 Se2'
_cell_volume   449.02667901
_cell_formula_units_Z   2
loop_
 _symmetry_equiv_pos_site_id
 _symmetry_equiv_pos_as_xyz
  1  'x, y, z'
loop_
 _atom_site_type_symbol
 _atom_site_label
 _atom_site_symmetry_multiplicity
 _atom_site_fract_x
 _atom_site_fract_y
 _atom_site_fract_z
 _atom_site_occupancy
  Er  Er0  1  0.739434  0.739434  0.750000  1
  Er  Er1  1  0.260566  0.000000  0.750000  1
  Er  Er2  1  0.000000  0.260566  0.750000  1
  Er  Er3  1  0.260566  0.260566  0.250000  1
  Er  Er4  1  0.739434  0.000000  0.250000  1
  Er  Er5  1  0.000000  0.739434  0.250000  1
  Zr  Zr6  1  0.666667  0.333333  0.000000  1
  Zr  Zr7  1  0.333333  0.666667  0.000000  1
  Zr  Zr8  1  0.333333  0.666667  0.500000  1
  Zr  Zr9  1  0.666667  0.333333  0.500000  1
  Bi  Bi10  1  0.395936  0.395936  0.750000  1
  Bi  Bi11  1  0.604064  0.000000  0.750000  1
  Bi  Bi12  1  0.000000  0.604064  0.750000  1
  Bi  Bi13  1  0.604064  0.604064  0.250000  1
  Bi  Bi14  1  0.395936  0.000000  0.250000  1
  Bi  Bi15  1  0.000000  0.395936  0.250000  1
  Se  Se16  1  0.000000  0.000000  0.000000  1
  Se  Se17  1  0.000000  0.000000  0.500000  1
