# generated using pymatgen
data_ZrPa3Bi2Sb3
_symmetry_space_group_name_H-M   'P 1'
_cell_length_a   9.39806000
_cell_length_b   9.39806025
_cell_length_c   6.26840400
_cell_angle_alpha   90.00000000
_cell_angle_beta   90.00000000
_cell_angle_gamma   119.99999910
_symmetry_Int_Tables_number   1
_chemical_formula_structural   ZrPa3Bi2Sb3
_chemical_formula_sum   'Zr2 Pa6 Bi4 Sb6'
_cell_volume   479.47288615
_cell_formula_units_Z   2
loop_
 _symmetry_equiv_pos_site_id
 _symmetry_equiv_pos_as_xyz
  1  'x, y, z'
loop_
 _atom_site_type_symbol
 _atom_site_label
 _atom_site_symmetry_multiplicity
 _atom_site_fract_x
 _atom_site_fract_y
 _atom_site_fract_z
 _atom_site_occupancy
  Zr  Zr0  1  0.000000  0.000000  0.000000  1
  Zr  Zr1  1  0.000000  0.000000  0.500000  1
  Pa  Pa2  1  0.621923  0.000000  0.250000  1
  Pa  Pa3  1  0.378077  0.000000  0.750000  1
  Pa  Pa4  1  0.000000  0.621923  0.250000  1
  Pa  Pa5  1  0.000000  0.378077  0.750000  1
  Pa  Pa6  1  0.378077  0.378077  0.250000  1
  Pa  Pa7  1  0.621923  0.621923  0.750000  1
  Bi  Bi8  1  0.333333  0.666667  0.000000  1
  Bi  Bi9  1  0.666667  0.333333  0.000000  1
  Bi  Bi10  1  0.666667  0.333333  0.500000  1
  Bi  Bi11  1  0.333333  0.666667  0.500000  1
  Sb  Sb12  1  0.273332  0.000000  0.250000  1
  Sb  Sb13  1  0.726668  0.000000  0.750000  1
  Sb  Sb14  1  0.000000  0.273332  0.250000  1
  Sb  Sb15  1  0.000000  0.726668  0.750000  1
  Sb  Sb16  1  0.726668  0.726668  0.250000  1
  Sb  Sb17  1  0.273332  0.273332  0.750000  1
