# generated using pymatgen
data_Sm10Sn5BiSe2
_symmetry_space_group_name_H-M   'P 1'
_cell_length_a   9.35878179
_cell_length_b   9.35878184
_cell_length_c   6.86197500
_cell_angle_alpha   90.00000000
_cell_angle_beta   90.00000000
_cell_angle_gamma   120.14788734
_symmetry_Int_Tables_number   1
_chemical_formula_structural   Sm10Sn5BiSe2
_chemical_formula_sum   'Sm10 Sn5 Bi1 Se2'
_cell_volume   519.71982925
_cell_formula_units_Z   1
loop_
 _symmetry_equiv_pos_site_id
 _symmetry_equiv_pos_as_xyz
  1  'x, y, z'
loop_
 _atom_site_type_symbol
 _atom_site_label
 _atom_site_symmetry_multiplicity
 _atom_site_fract_x
 _atom_site_fract_y
 _atom_site_fract_z
 _atom_site_occupancy
  Sm  Sm0  1  0.669226  0.332657  0.001656  1
  Sm  Sm1  1  0.332657  0.669226  0.001656  1
  Sm  Sm2  1  0.332657  0.669226  0.498344  1
  Sm  Sm3  1  0.669226  0.332657  0.498344  1
  Sm  Sm4  1  0.749754  0.749754  0.750000  1
  Sm  Sm5  1  0.250997  0.995616  0.750000  1
  Sm  Sm6  1  0.995616  0.250997  0.750000  1
  Sm  Sm7  1  0.251565  0.251565  0.250000  1
  Sm  Sm8  1  0.746786  0.999612  0.250000  1
  Sm  Sm9  1  0.999612  0.746786  0.250000  1
  Sn  Sn10  1  0.604339  0.000151  0.750000  1
  Sn  Sn11  1  0.000151  0.604339  0.750000  1
  Sn  Sn12  1  0.605004  0.605004  0.250000  1
  Sn  Sn13  1  0.395598  0.000508  0.250000  1
  Sn  Sn14  1  0.000508  0.395598  0.250000  1
  Bi  Bi15  1  0.394883  0.394883  0.750000  1
  Se  Se16  1  0.000710  0.000710  0.999787  1
  Se  Se17  1  0.000710  0.000710  0.500213  1
