# generated using pymatgen
data_ErNb6Sn5Sb
_symmetry_space_group_name_H-M   'P 1'
_cell_length_a   5.80129000
_cell_length_b   5.80129092
_cell_length_c   9.58999200
_cell_angle_alpha   90.00000000
_cell_angle_beta   90.00000000
_cell_angle_gamma   120.00000616
_symmetry_Int_Tables_number   1
_chemical_formula_structural   ErNb6Sn5Sb
_chemical_formula_sum   'Er1 Nb6 Sn5 Sb1'
_cell_volume   279.51046347
_cell_formula_units_Z   1
loop_
 _symmetry_equiv_pos_site_id
 _symmetry_equiv_pos_as_xyz
  1  'x, y, z'
loop_
 _atom_site_type_symbol
 _atom_site_label
 _atom_site_symmetry_multiplicity
 _atom_site_fract_x
 _atom_site_fract_y
 _atom_site_fract_z
 _atom_site_occupancy
  Er  Er0  1  0.000000  0.000000  0.995759  1
  Nb  Nb1  1  0.000000  0.500000  0.751944  1
  Nb  Nb2  1  0.500000  0.500000  0.751944  1
  Nb  Nb3  1  0.500000  0.000000  0.751944  1
  Nb  Nb4  1  0.000000  0.500000  0.250453  1
  Nb  Nb5  1  0.500000  0.500000  0.250453  1
  Nb  Nb6  1  0.500000  0.000000  0.250453  1
  Sn  Sn7  1  0.666667  0.333333  0.500566  1
  Sn  Sn8  1  0.333333  0.666667  0.500566  1
  Sn  Sn9  1  0.666667  0.333333  0.001038  1
  Sn  Sn10  1  0.333333  0.666667  0.001038  1
  Sn  Sn11  1  0.000000  0.000000  0.334277  1
  Sb  Sb12  1  0.000000  0.000000  0.659561  1
