# generated using pymatgen
data_Pr(DyTe2)2
_symmetry_space_group_name_H-M   'P 1'
_cell_length_a   4.40185500
_cell_length_b   7.57137585
_cell_length_c   7.73509955
_cell_angle_alpha   71.84507511
_cell_angle_beta   90.00000000
_cell_angle_gamma   90.00000000
_symmetry_Int_Tables_number   1
_chemical_formula_structural   Pr(DyTe2)2
_chemical_formula_sum   'Pr1 Dy2 Te4'
_cell_volume   244.96241690
_cell_formula_units_Z   1
loop_
 _symmetry_equiv_pos_site_id
 _symmetry_equiv_pos_as_xyz
  1  'x, y, z'
loop_
 _atom_site_type_symbol
 _atom_site_label
 _atom_site_symmetry_multiplicity
 _atom_site_fract_x
 _atom_site_fract_y
 _atom_site_fract_z
 _atom_site_occupancy
  Pr  Pr0  1  0.000000  0.500000  0.500000  1
  Dy  Dy1  1  0.000000  0.000000  0.000000  1
  Dy  Dy2  1  0.500000  0.500000  0.000000  1
  Te  Te3  1  0.500000  0.761929  0.244825  1
  Te  Te4  1  0.000000  0.252031  0.239162  1
  Te  Te5  1  0.500000  0.238071  0.755175  1
  Te  Te6  1  0.000000  0.747969  0.760838  1
