# generated using pymatgen
data_YbZnInAg3
_symmetry_space_group_name_H-M   'P 1'
_cell_length_a   5.46926057
_cell_length_b   5.46925930
_cell_length_c   5.46926130
_cell_angle_alpha   61.98757324
_cell_angle_beta   61.98758076
_cell_angle_gamma   61.98757915
_symmetry_Int_Tables_number   1
_chemical_formula_structural   YbZnInAg3
_chemical_formula_sum   'Yb1 Zn1 In1 Ag3'
_cell_volume   120.82676541
_cell_formula_units_Z   1
loop_
 _symmetry_equiv_pos_site_id
 _symmetry_equiv_pos_as_xyz
  1  'x, y, z'
loop_
 _atom_site_type_symbol
 _atom_site_label
 _atom_site_symmetry_multiplicity
 _atom_site_fract_x
 _atom_site_fract_y
 _atom_site_fract_z
 _atom_site_occupancy
  Yb  Yb0  1  0.750406  0.750406  0.750406  1
  Zn  Zn1  1  0.374713  0.374713  0.374713  1
  In  In2  1  0.001430  0.001430  0.001430  1
  Ag  Ag3  1  0.374131  0.875190  0.374131  1
  Ag  Ag4  1  0.374131  0.374131  0.875190  1
  Ag  Ag5  1  0.875190  0.374131  0.374131  1
