# generated using pymatgen
data_Te16Mo
_symmetry_space_group_name_H-M   'P 1'
_cell_length_a   7.80494214
_cell_length_b   7.80494206
_cell_length_c   12.97637765
_cell_angle_alpha   57.15246098
_cell_angle_beta   57.15246076
_cell_angle_gamma   67.19990123
_symmetry_Int_Tables_number   1
_chemical_formula_structural   Te16Mo
_chemical_formula_sum   'Te16 Mo1'
_cell_volume   553.02280356
_cell_formula_units_Z   1
loop_
 _symmetry_equiv_pos_site_id
 _symmetry_equiv_pos_as_xyz
  1  'x, y, z'
loop_
 _atom_site_type_symbol
 _atom_site_label
 _atom_site_symmetry_multiplicity
 _atom_site_fract_x
 _atom_site_fract_y
 _atom_site_fract_z
 _atom_site_occupancy
  Te  Te0  1  0.807359  0.807359  0.895690  1
  Te  Te1  1  0.350734  0.350734  0.865353  1
  Te  Te2  1  0.665091  0.146594  0.124186  1
  Te  Te3  1  0.146594  0.665091  0.124186  1
  Te  Te4  1  0.019902  0.019902  0.340179  1
  Te  Te5  1  0.456164  0.456164  0.380251  1
  Te  Te6  1  0.527012  0.074985  0.616408  1
  Te  Te7  1  0.074985  0.527012  0.616408  1
  Te  Te8  1  0.229919  0.229919  0.374636  1
  Te  Te9  1  0.734648  0.734648  0.359327  1
  Te  Te10  1  0.315654  0.767100  0.639798  1
  Te  Te11  1  0.767100  0.315654  0.639798  1
  Te  Te12  1  0.049200  0.049200  0.919391  1
  Te  Te13  1  0.603922  0.603922  0.850687  1
  Te  Te14  1  0.414007  0.898587  0.117248  1
  Te  Te15  1  0.898587  0.414007  0.117248  1
  Mo  Mo16  1  0.750418  0.750418  0.553605  1
