# generated using pymatgen
data_SrSi(AsRh2)3
_symmetry_space_group_name_H-M   'P 1'
_cell_length_a   7.26254400
_cell_length_b   7.26254385
_cell_length_c   3.83406400
_cell_angle_alpha   90.00000000
_cell_angle_beta   90.00000000
_cell_angle_gamma   119.99999159
_symmetry_Int_Tables_number   1
_chemical_formula_structural   SrSi(AsRh2)3
_chemical_formula_sum   'Sr1 Si1 As3 Rh6'
_cell_volume   175.13283199
_cell_formula_units_Z   1
loop_
 _symmetry_equiv_pos_site_id
 _symmetry_equiv_pos_as_xyz
  1  'x, y, z'
loop_
 _atom_site_type_symbol
 _atom_site_label
 _atom_site_symmetry_multiplicity
 _atom_site_fract_x
 _atom_site_fract_y
 _atom_site_fract_z
 _atom_site_occupancy
  Sr  Sr0  1  0.000000  0.000000  0.000000  1
  Si  Si1  1  0.333333  0.666667  0.000000  1
  As  As2  1  0.808163  0.616328  0.500000  1
  As  As3  1  0.383672  0.191837  0.500000  1
  As  As4  1  0.808163  0.191837  0.500000  1
  Rh  Rh5  1  0.205064  0.794936  0.500000  1
  Rh  Rh6  1  0.205064  0.410129  0.500000  1
  Rh  Rh7  1  0.533029  0.066059  0.000000  1
  Rh  Rh8  1  0.933941  0.466971  0.000000  1
  Rh  Rh9  1  0.533029  0.466971  0.000000  1
  Rh  Rh10  1  0.589871  0.794936  0.500000  1
