# generated using pymatgen
data_Ce6Zr2Bi3Sb7
_symmetry_space_group_name_H-M   'P 1'
_cell_length_a   9.52189100
_cell_length_b   9.52189032
_cell_length_c   6.40494600
_cell_angle_alpha   90.00000000
_cell_angle_beta   90.00000000
_cell_angle_gamma   119.99999889
_symmetry_Int_Tables_number   1
_chemical_formula_structural   Ce6Zr2Bi3Sb7
_chemical_formula_sum   'Ce6 Zr2 Bi3 Sb7'
_cell_volume   502.91256846
_cell_formula_units_Z   1
loop_
 _symmetry_equiv_pos_site_id
 _symmetry_equiv_pos_as_xyz
  1  'x, y, z'
loop_
 _atom_site_type_symbol
 _atom_site_label
 _atom_site_symmetry_multiplicity
 _atom_site_fract_x
 _atom_site_fract_y
 _atom_site_fract_z
 _atom_site_occupancy
  Ce  Ce0  1  0.617207  0.997618  0.251777  1
  Ce  Ce1  1  0.380411  0.997618  0.748223  1
  Ce  Ce2  1  0.002382  0.619589  0.251777  1
  Ce  Ce3  1  0.002382  0.382793  0.748223  1
  Ce  Ce4  1  0.380411  0.382793  0.251777  1
  Ce  Ce5  1  0.617207  0.619589  0.748223  1
  Zr  Zr6  1  0.000000  0.000000  0.000000  1
  Zr  Zr7  1  0.000000  0.000000  0.500000  1
  Bi  Bi8  1  0.333333  0.666667  0.000000  1
  Bi  Bi9  1  0.666667  0.333333  0.000000  1
  Bi  Bi10  1  0.666667  0.333333  0.500000  1
  Sb  Sb11  1  0.266217  0.000400  0.249737  1
  Sb  Sb12  1  0.734183  0.000400  0.750263  1
  Sb  Sb13  1  0.999600  0.265817  0.249737  1
  Sb  Sb14  1  0.999600  0.733783  0.750263  1
  Sb  Sb15  1  0.734183  0.733783  0.249737  1
  Sb  Sb16  1  0.266217  0.265817  0.750263  1
  Sb  Sb17  1  0.333333  0.666667  0.500000  1
