# generated using pymatgen
data_SmTmSbTe
_symmetry_space_group_name_H-M   'P 1'
_cell_length_a   7.63140177
_cell_length_b   7.63140231
_cell_length_c   7.63140132
_cell_angle_alpha   33.47162964
_cell_angle_beta   33.47162187
_cell_angle_gamma   33.47162501
_symmetry_Int_Tables_number   1
_chemical_formula_structural   SmTmSbTe
_chemical_formula_sum   'Sm1 Tm1 Sb1 Te1'
_cell_volume   120.39917939
_cell_formula_units_Z   1
loop_
 _symmetry_equiv_pos_site_id
 _symmetry_equiv_pos_as_xyz
  1  'x, y, z'
loop_
 _atom_site_type_symbol
 _atom_site_label
 _atom_site_symmetry_multiplicity
 _atom_site_fract_x
 _atom_site_fract_y
 _atom_site_fract_z
 _atom_site_occupancy
  Sm  Sm0  1  0.253848  0.253848  0.253848  1
  Tm  Tm1  1  0.745855  0.745855  0.745855  1
  Sb  Sb2  1  0.003511  0.003511  0.003511  1
  Te  Te3  1  0.496786  0.496786  0.496786  1
