# generated using pymatgen
data_Y3Sc3NbBi2
_symmetry_space_group_name_H-M   'P 1'
_cell_length_a   7.96352100
_cell_length_b   7.96352119
_cell_length_c   4.42384800
_cell_angle_alpha   90.00000000
_cell_angle_beta   90.00000000
_cell_angle_gamma   119.99999505
_symmetry_Int_Tables_number   1
_chemical_formula_structural   Y3Sc3NbBi2
_chemical_formula_sum   'Y3 Sc3 Nb1 Bi2'
_cell_volume   242.96354727
_cell_formula_units_Z   1
loop_
 _symmetry_equiv_pos_site_id
 _symmetry_equiv_pos_as_xyz
  1  'x, y, z'
loop_
 _atom_site_type_symbol
 _atom_site_label
 _atom_site_symmetry_multiplicity
 _atom_site_fract_x
 _atom_site_fract_y
 _atom_site_fract_z
 _atom_site_occupancy
  Y  Y0  1  0.598657  0.000000  0.000000  1
  Y  Y1  1  0.000000  0.598657  0.000000  1
  Y  Y2  1  0.401343  0.401343  0.000000  1
  Sc  Sc3  1  0.231641  0.000000  0.500000  1
  Sc  Sc4  1  0.000000  0.231641  0.500000  1
  Sc  Sc5  1  0.768359  0.768359  0.500000  1
  Nb  Nb6  1  0.000000  0.000000  0.000000  1
  Bi  Bi7  1  0.333333  0.666667  0.500000  1
  Bi  Bi8  1  0.666667  0.333333  0.500000  1
