# generated using pymatgen
data_Y3Sc3TcBi2
_symmetry_space_group_name_H-M   'P 1'
_cell_length_a   7.98997900
_cell_length_b   7.98997980
_cell_length_c   4.26262900
_cell_angle_alpha   90.00000000
_cell_angle_beta   90.00000000
_cell_angle_gamma   119.99999256
_symmetry_Int_Tables_number   1
_chemical_formula_structural   Y3Sc3TcBi2
_chemical_formula_sum   'Y3 Sc3 Tc1 Bi2'
_cell_volume   235.66740443
_cell_formula_units_Z   1
loop_
 _symmetry_equiv_pos_site_id
 _symmetry_equiv_pos_as_xyz
  1  'x, y, z'
loop_
 _atom_site_type_symbol
 _atom_site_label
 _atom_site_symmetry_multiplicity
 _atom_site_fract_x
 _atom_site_fract_y
 _atom_site_fract_z
 _atom_site_occupancy
  Y  Y0  1  0.607400  0.000000  0.000000  1
  Y  Y1  1  0.000000  0.607400  0.000000  1
  Y  Y2  1  0.392600  0.392600  0.000000  1
  Sc  Sc3  1  0.221855  0.000000  0.500000  1
  Sc  Sc4  1  0.000000  0.221855  0.500000  1
  Sc  Sc5  1  0.778145  0.778145  0.500000  1
  Tc  Tc6  1  0.000000  0.000000  0.000000  1
  Bi  Bi7  1  0.333333  0.666667  0.500000  1
  Bi  Bi8  1  0.666667  0.333333  0.500000  1
