# generated using pymatgen
data_Ce2CuSb4
_symmetry_space_group_name_H-M   'P 1'
_cell_length_a   4.40191700
_cell_length_b   4.40191700
_cell_length_c   9.42217000
_cell_angle_alpha   90.00000000
_cell_angle_beta   90.00000000
_cell_angle_gamma   90.00000000
_symmetry_Int_Tables_number   1
_chemical_formula_structural   Ce2CuSb4
_chemical_formula_sum   'Ce2 Cu1 Sb4'
_cell_volume   182.57219406
_cell_formula_units_Z   1
loop_
 _symmetry_equiv_pos_site_id
 _symmetry_equiv_pos_as_xyz
  1  'x, y, z'
loop_
 _atom_site_type_symbol
 _atom_site_label
 _atom_site_symmetry_multiplicity
 _atom_site_fract_x
 _atom_site_fract_y
 _atom_site_fract_z
 _atom_site_occupancy
  Ce  Ce0  1  0.500000  0.000000  0.736053  1
  Ce  Ce1  1  0.000000  0.500000  0.263947  1
  Cu  Cu2  1  0.500000  0.500000  0.500000  1
  Sb  Sb3  1  0.500000  0.500000  0.000000  1
  Sb  Sb4  1  0.000000  0.000000  0.000000  1
  Sb  Sb5  1  0.500000  0.000000  0.350731  1
  Sb  Sb6  1  0.000000  0.500000  0.649269  1
