# generated using pymatgen
data_Ac3Tb(CdSn)4
_symmetry_space_group_name_H-M   'P 1'
_cell_length_a   4.88674600
_cell_length_b   4.88674448
_cell_length_c   17.48064900
_cell_angle_alpha   90.00000000
_cell_angle_beta   90.00000000
_cell_angle_gamma   119.99999675
_symmetry_Int_Tables_number   1
_chemical_formula_structural   Ac3Tb(CdSn)4
_chemical_formula_sum   'Ac3 Tb1 Cd4 Sn4'
_cell_volume   361.51606042
_cell_formula_units_Z   1
loop_
 _symmetry_equiv_pos_site_id
 _symmetry_equiv_pos_as_xyz
  1  'x, y, z'
loop_
 _atom_site_type_symbol
 _atom_site_label
 _atom_site_symmetry_multiplicity
 _atom_site_fract_x
 _atom_site_fract_y
 _atom_site_fract_z
 _atom_site_occupancy
  Ac  Ac0  1  0.000000  0.000000  0.750000  1
  Ac  Ac1  1  0.000000  0.000000  0.490912  1
  Ac  Ac2  1  0.000000  0.000000  0.009088  1
  Tb  Tb3  1  0.000000  0.000000  0.250000  1
  Cd  Cd4  1  0.666667  0.333333  0.852311  1
  Cd  Cd5  1  0.666667  0.333333  0.647689  1
  Cd  Cd6  1  0.333333  0.666667  0.165096  1
  Cd  Cd7  1  0.333333  0.666667  0.334904  1
  Sn  Sn8  1  0.666667  0.333333  0.122889  1
  Sn  Sn9  1  0.666667  0.333333  0.377111  1
  Sn  Sn10  1  0.333333  0.666667  0.892366  1
  Sn  Sn11  1  0.333333  0.666667  0.607634  1
