# generated using pymatgen
data_Sc2(Ti2Bi3)3
_symmetry_space_group_name_H-M   'P 1'
_cell_length_a   10.41730000
_cell_length_b   10.41730000
_cell_length_c   7.57834600
_cell_angle_alpha   90.00000000
_cell_angle_beta   90.00000000
_cell_angle_gamma   90.00000000
_symmetry_Int_Tables_number   1
_chemical_formula_structural   Sc2(Ti2Bi3)3
_chemical_formula_sum   'Sc4 Ti12 Bi18'
_cell_volume   822.40316351
_cell_formula_units_Z   2
loop_
 _symmetry_equiv_pos_site_id
 _symmetry_equiv_pos_as_xyz
  1  'x, y, z'
loop_
 _atom_site_type_symbol
 _atom_site_label
 _atom_site_symmetry_multiplicity
 _atom_site_fract_x
 _atom_site_fract_y
 _atom_site_fract_z
 _atom_site_occupancy
  Sc  Sc0  1  0.500000  0.000000  0.423693  1
  Sc  Sc1  1  0.000000  0.500000  0.078293  1
  Sc  Sc2  1  0.500000  0.000000  0.921707  1
  Sc  Sc3  1  0.000000  0.500000  0.576307  1
  Ti  Ti4  1  0.857533  0.000000  0.850546  1
  Ti  Ti5  1  0.000000  0.142467  0.149454  1
  Ti  Ti6  1  0.000000  0.857533  0.149454  1
  Ti  Ti7  1  0.642467  0.500000  0.149454  1
  Ti  Ti8  1  0.142467  0.000000  0.850546  1
  Ti  Ti9  1  0.357533  0.500000  0.149454  1
  Ti  Ti10  1  0.250000  0.750000  0.000000  1
  Ti  Ti11  1  0.500000  0.357533  0.850546  1
  Ti  Ti12  1  0.750000  0.250000  0.000000  1
  Ti  Ti13  1  0.500000  0.642467  0.850546  1
  Ti  Ti14  1  0.750000  0.750000  0.000000  1
  Ti  Ti15  1  0.250000  0.250000  0.000000  1
  Bi  Bi16  1  0.669168  0.169168  0.656538  1
  Bi  Bi17  1  0.500000  0.244100  0.191027  1
  Bi  Bi18  1  0.000000  0.000000  0.500000  1
  Bi  Bi19  1  0.169168  0.669168  0.343462  1
  Bi  Bi20  1  0.244100  0.500000  0.808973  1
  Bi  Bi21  1  0.669168  0.830832  0.656538  1
  Bi  Bi22  1  0.000000  0.255900  0.808973  1
  Bi  Bi23  1  0.744100  0.000000  0.191027  1
  Bi  Bi24  1  0.500000  0.755900  0.191027  1
  Bi  Bi25  1  0.255900  0.000000  0.191027  1
  Bi  Bi26  1  0.330832  0.830832  0.656538  1
  Bi  Bi27  1  0.755900  0.500000  0.808973  1
  Bi  Bi28  1  0.500000  0.500000  0.500000  1
  Bi  Bi29  1  0.000000  0.744100  0.808973  1
  Bi  Bi30  1  0.169168  0.330832  0.343462  1
  Bi  Bi31  1  0.830832  0.330832  0.343462  1
  Bi  Bi32  1  0.330832  0.169168  0.656538  1
  Bi  Bi33  1  0.830832  0.669168  0.343462  1
