# generated using pymatgen
data_HfZr9CuSn6Bi
_symmetry_space_group_name_H-M   'P 1'
_cell_length_a   8.76822900
_cell_length_b   8.76822920
_cell_length_c   5.96611900
_cell_angle_alpha   90.00000000
_cell_angle_beta   90.00000000
_cell_angle_gamma   120.00000303
_symmetry_Int_Tables_number   1
_chemical_formula_structural   HfZr9CuSn6Bi
_chemical_formula_sum   'Hf1 Zr9 Cu1 Sn6 Bi1'
_cell_volume   397.23390289
_cell_formula_units_Z   1
loop_
 _symmetry_equiv_pos_site_id
 _symmetry_equiv_pos_as_xyz
  1  'x, y, z'
loop_
 _atom_site_type_symbol
 _atom_site_label
 _atom_site_symmetry_multiplicity
 _atom_site_fract_x
 _atom_site_fract_y
 _atom_site_fract_z
 _atom_site_occupancy
  Hf  Hf0  1  0.666667  0.333333  0.500000  1
  Zr  Zr1  1  0.333333  0.666667  0.500000  1
  Zr  Zr2  1  0.333333  0.666667  0.000000  1
  Zr  Zr3  1  0.666667  0.333333  0.000000  1
  Zr  Zr4  1  0.726036  0.725804  0.232518  1
  Zr  Zr5  1  0.274196  0.000232  0.232518  1
  Zr  Zr6  1  0.999768  0.273964  0.232518  1
  Zr  Zr7  1  0.274196  0.273964  0.767482  1
  Zr  Zr8  1  0.726036  0.000232  0.767482  1
  Zr  Zr9  1  0.999768  0.725804  0.767482  1
  Cu  Cu10  1  0.000000  0.000000  0.000000  1
  Sn  Sn11  1  0.386291  0.385737  0.254373  1
  Sn  Sn12  1  0.614263  0.000553  0.254373  1
  Sn  Sn13  1  0.999447  0.613709  0.254373  1
  Sn  Sn14  1  0.614263  0.613709  0.745627  1
  Sn  Sn15  1  0.386291  0.000553  0.745627  1
  Sn  Sn16  1  0.999447  0.385737  0.745627  1
  Bi  Bi17  1  0.000000  0.000000  0.500000  1
