# generated using pymatgen
data_CaEr(Cu2P)4
_symmetry_space_group_name_H-M   'P 1'
_cell_length_a   7.29195358
_cell_length_b   7.29195358
_cell_length_c   3.82162200
_cell_angle_alpha   90.00000000
_cell_angle_beta   90.00000000
_cell_angle_gamma   89.52907340
_symmetry_Int_Tables_number   1
_chemical_formula_structural   CaEr(Cu2P)4
_chemical_formula_sum   'Ca1 Er1 Cu8 P4'
_cell_volume   203.19866433
_cell_formula_units_Z   1
loop_
 _symmetry_equiv_pos_site_id
 _symmetry_equiv_pos_as_xyz
  1  'x, y, z'
loop_
 _atom_site_type_symbol
 _atom_site_label
 _atom_site_symmetry_multiplicity
 _atom_site_fract_x
 _atom_site_fract_y
 _atom_site_fract_z
 _atom_site_occupancy
  Ca  Ca0  1  0.500000  0.500000  0.500000  1
  Er  Er1  1  0.000000  0.000000  0.000000  1
  Cu  Cu2  1  0.665002  0.916487  0.500000  1
  Cu  Cu3  1  0.162620  0.584362  0.000000  1
  Cu  Cu4  1  0.415638  0.837380  0.000000  1
  Cu  Cu5  1  0.916487  0.665002  0.500000  1
  Cu  Cu6  1  0.837380  0.415638  0.000000  1
  Cu  Cu7  1  0.584362  0.162620  0.000000  1
  Cu  Cu8  1  0.083513  0.334998  0.500000  1
  Cu  Cu9  1  0.334998  0.083513  0.500000  1
  P  P10  1  0.280071  0.280071  0.000000  1
  P  P11  1  0.719929  0.719929  0.000000  1
  P  P12  1  0.787073  0.212927  0.500000  1
  P  P13  1  0.212927  0.787073  0.500000  1
