# generated using pymatgen
data_Np3TiBi2Sb3
_symmetry_space_group_name_H-M   'P 1'
_cell_length_a   9.28655500
_cell_length_b   9.28655565
_cell_length_c   6.28587100
_cell_angle_alpha   90.00000000
_cell_angle_beta   90.00000000
_cell_angle_gamma   120.00000126
_symmetry_Int_Tables_number   1
_chemical_formula_structural   Np3TiBi2Sb3
_chemical_formula_sum   'Np6 Ti2 Bi4 Sb6'
_cell_volume   469.46734678
_cell_formula_units_Z   2
loop_
 _symmetry_equiv_pos_site_id
 _symmetry_equiv_pos_as_xyz
  1  'x, y, z'
loop_
 _atom_site_type_symbol
 _atom_site_label
 _atom_site_symmetry_multiplicity
 _atom_site_fract_x
 _atom_site_fract_y
 _atom_site_fract_z
 _atom_site_occupancy
  Np  Np0  1  0.379046  0.000000  0.750000  1
  Np  Np1  1  0.379046  0.379046  0.250000  1
  Np  Np2  1  0.000000  0.620954  0.250000  1
  Np  Np3  1  0.000000  0.379046  0.750000  1
  Np  Np4  1  0.620954  0.620954  0.750000  1
  Np  Np5  1  0.620954  0.000000  0.250000  1
  Ti  Ti6  1  0.000000  0.000000  0.000000  1
  Ti  Ti7  1  0.000000  0.000000  0.500000  1
  Bi  Bi8  1  0.666667  0.333333  0.500000  1
  Bi  Bi9  1  0.333333  0.666667  0.000000  1
  Bi  Bi10  1  0.333333  0.666667  0.500000  1
  Bi  Bi11  1  0.666667  0.333333  0.000000  1
  Sb  Sb12  1  0.740961  0.000000  0.750000  1
  Sb  Sb13  1  0.740961  0.740961  0.250000  1
  Sb  Sb14  1  0.259039  0.000000  0.250000  1
  Sb  Sb15  1  0.259039  0.259039  0.750000  1
  Sb  Sb16  1  0.000000  0.740961  0.750000  1
  Sb  Sb17  1  0.000000  0.259039  0.250000  1
