# generated using pymatgen
data_YbSi6(Pd10Pb)2
_symmetry_space_group_name_H-M   'P 1'
_cell_length_a   8.72575072
_cell_length_b   8.72575077
_cell_length_c   8.72575100
_cell_angle_alpha   60.00000291
_cell_angle_beta   60.00000273
_cell_angle_gamma   60.00000418
_symmetry_Int_Tables_number   1
_chemical_formula_structural   YbSi6(Pd10Pb)2
_chemical_formula_sum   'Yb1 Si6 Pd20 Pb2'
_cell_volume   469.77884527
_cell_formula_units_Z   1
loop_
 _symmetry_equiv_pos_site_id
 _symmetry_equiv_pos_as_xyz
  1  'x, y, z'
loop_
 _atom_site_type_symbol
 _atom_site_label
 _atom_site_symmetry_multiplicity
 _atom_site_fract_x
 _atom_site_fract_y
 _atom_site_fract_z
 _atom_site_occupancy
  Yb  Yb0  1  0.000000  0.000000  0.000000  1
  Si  Si1  1  0.730218  0.269782  0.269782  1
  Si  Si2  1  0.269782  0.730218  0.730218  1
  Si  Si3  1  0.269782  0.730218  0.269782  1
  Si  Si4  1  0.730218  0.269782  0.730218  1
  Si  Si5  1  0.269782  0.269782  0.730218  1
  Si  Si6  1  0.730218  0.730218  0.269782  1
  Pd  Pd7  1  0.383238  0.383238  0.383238  1
  Pd  Pd8  1  0.616762  0.616762  0.616762  1
  Pd  Pd9  1  0.383238  0.383238  0.850288  1
  Pd  Pd10  1  0.383238  0.850288  0.383238  1
  Pd  Pd11  1  0.616762  0.616762  0.149712  1
  Pd  Pd12  1  0.616762  0.149712  0.616762  1
  Pd  Pd13  1  0.850288  0.383238  0.383238  1
  Pd  Pd14  1  0.149712  0.616762  0.616762  1
  Pd  Pd15  1  0.341872  0.000000  0.000000  1
  Pd  Pd16  1  0.658128  0.000000  0.000000  1
  Pd  Pd17  1  0.000000  0.341872  0.658128  1
  Pd  Pd18  1  0.000000  0.658128  0.341872  1
  Pd  Pd19  1  0.000000  0.341872  0.000000  1
  Pd  Pd20  1  0.658128  0.000000  0.341872  1
  Pd  Pd21  1  0.000000  0.658128  0.000000  1
  Pd  Pd22  1  0.341872  0.000000  0.658128  1
  Pd  Pd23  1  0.000000  0.000000  0.341872  1
  Pd  Pd24  1  0.000000  0.000000  0.658128  1
  Pd  Pd25  1  0.658128  0.341872  0.000000  1
  Pd  Pd26  1  0.341872  0.658128  0.000000  1
  Pb  Pb27  1  0.250000  0.250000  0.250000  1
  Pb  Pb28  1  0.750000  0.750000  0.750000  1
