# generated using pymatgen
data_Ho3In3BiIrRh
_symmetry_space_group_name_H-M   'P 1'
_cell_length_a   7.81705800
_cell_length_b   7.81705766
_cell_length_c   3.96338000
_cell_angle_alpha   90.00000000
_cell_angle_beta   90.00000000
_cell_angle_gamma   119.99999296
_symmetry_Int_Tables_number   1
_chemical_formula_structural   Ho3In3BiIrRh
_chemical_formula_sum   'Ho3 In3 Bi1 Ir1 Rh1'
_cell_volume   209.74085107
_cell_formula_units_Z   1
loop_
 _symmetry_equiv_pos_site_id
 _symmetry_equiv_pos_as_xyz
  1  'x, y, z'
loop_
 _atom_site_type_symbol
 _atom_site_label
 _atom_site_symmetry_multiplicity
 _atom_site_fract_x
 _atom_site_fract_y
 _atom_site_fract_z
 _atom_site_occupancy
  Ho  Ho0  1  0.579158  0.611550  0.000000  1
  Ho  Ho1  1  0.388450  0.967607  0.000000  1
  Ho  Ho2  1  0.032393  0.420842  0.000000  1
  In  In3  1  0.019812  0.762847  0.500000  1
  In  In4  1  0.237153  0.256966  0.500000  1
  In  In5  1  0.743034  0.980188  0.500000  1
  Bi  Bi6  1  0.666667  0.333333  0.500000  1
  Ir  Ir7  1  0.333333  0.666667  0.500000  1
  Rh  Rh8  1  0.000000  0.000000  0.000000  1
