# generated using pymatgen
data_LaDyCu2SiGe
_symmetry_space_group_name_H-M   'P 1'
_cell_length_a   4.24446200
_cell_length_b   4.24446344
_cell_length_c   7.80175300
_cell_angle_alpha   90.00000000
_cell_angle_beta   90.00000000
_cell_angle_gamma   120.00000438
_symmetry_Int_Tables_number   1
_chemical_formula_structural   LaDyCu2SiGe
_chemical_formula_sum   'La1 Dy1 Cu2 Si1 Ge1'
_cell_volume   121.72176910
_cell_formula_units_Z   1
loop_
 _symmetry_equiv_pos_site_id
 _symmetry_equiv_pos_as_xyz
  1  'x, y, z'
loop_
 _atom_site_type_symbol
 _atom_site_label
 _atom_site_symmetry_multiplicity
 _atom_site_fract_x
 _atom_site_fract_y
 _atom_site_fract_z
 _atom_site_occupancy
  La  La0  1  0.000000  0.000000  0.002118  1
  Dy  Dy1  1  0.000000  0.000000  0.498612  1
  Cu  Cu2  1  0.333333  0.666667  0.725544  1
  Cu  Cu3  1  0.666667  0.333333  0.273417  1
  Si  Si4  1  0.333333  0.666667  0.264582  1
  Ge  Ge5  1  0.666667  0.333333  0.735728  1
