# generated using pymatgen
data_Ti6Nb4CuSn6Sb
_symmetry_space_group_name_H-M   'P 1'
_cell_length_a   8.32237500
_cell_length_b   8.32237460
_cell_length_c   5.64232000
_cell_angle_alpha   90.00000000
_cell_angle_beta   90.00000000
_cell_angle_gamma   119.99999760
_symmetry_Int_Tables_number   1
_chemical_formula_structural   Ti6Nb4CuSn6Sb
_chemical_formula_sum   'Ti6 Nb4 Cu1 Sn6 Sb1'
_cell_volume   338.44094298
_cell_formula_units_Z   1
loop_
 _symmetry_equiv_pos_site_id
 _symmetry_equiv_pos_as_xyz
  1  'x, y, z'
loop_
 _atom_site_type_symbol
 _atom_site_label
 _atom_site_symmetry_multiplicity
 _atom_site_fract_x
 _atom_site_fract_y
 _atom_site_fract_z
 _atom_site_occupancy
  Ti  Ti0  1  0.277507  0.000000  0.758942  1
  Ti  Ti1  1  0.722493  0.000000  0.241058  1
  Ti  Ti2  1  0.000000  0.277507  0.758942  1
  Ti  Ti3  1  0.000000  0.722493  0.241058  1
  Ti  Ti4  1  0.722493  0.722493  0.758942  1
  Ti  Ti5  1  0.277507  0.277507  0.241058  1
  Nb  Nb6  1  0.333333  0.666667  0.500000  1
  Nb  Nb7  1  0.666667  0.333333  0.500000  1
  Nb  Nb8  1  0.666667  0.333333  0.000000  1
  Nb  Nb9  1  0.333333  0.666667  0.000000  1
  Cu  Cu10  1  0.000000  0.000000  0.000000  1
  Sn  Sn11  1  0.616978  0.000000  0.751405  1
  Sn  Sn12  1  0.383022  0.000000  0.248595  1
  Sn  Sn13  1  0.000000  0.616978  0.751405  1
  Sn  Sn14  1  0.000000  0.383022  0.248595  1
  Sn  Sn15  1  0.383022  0.383022  0.751405  1
  Sn  Sn16  1  0.616978  0.616978  0.248595  1
  Sb  Sb17  1  0.000000  0.000000  0.500000  1
