# generated using pymatgen
data_Mn2SbTe2
_symmetry_space_group_name_H-M   'P 1'
_cell_length_a   4.05215800
_cell_length_b   4.05215733
_cell_length_c   17.70295800
_cell_angle_alpha   90.00000000
_cell_angle_beta   90.00000000
_cell_angle_gamma   120.00000543
_symmetry_Int_Tables_number   1
_chemical_formula_structural   Mn2SbTe2
_chemical_formula_sum   'Mn4 Sb2 Te4'
_cell_volume   251.73819697
_cell_formula_units_Z   2
loop_
 _symmetry_equiv_pos_site_id
 _symmetry_equiv_pos_as_xyz
  1  'x, y, z'
loop_
 _atom_site_type_symbol
 _atom_site_label
 _atom_site_symmetry_multiplicity
 _atom_site_fract_x
 _atom_site_fract_y
 _atom_site_fract_z
 _atom_site_occupancy
  Mn  Mn0  1  0.000000  0.000000  0.165333  1
  Mn  Mn1  1  0.000000  0.000000  0.665333  1
  Mn  Mn2  1  0.000000  0.000000  0.834667  1
  Mn  Mn3  1  0.000000  0.000000  0.334667  1
  Sb  Sb4  1  0.333333  0.666667  0.250000  1
  Sb  Sb5  1  0.666667  0.333333  0.750000  1
  Te  Te6  1  0.333333  0.666667  0.589254  1
  Te  Te7  1  0.666667  0.333333  0.089254  1
  Te  Te8  1  0.666667  0.333333  0.410746  1
  Te  Te9  1  0.333333  0.666667  0.910746  1
