# generated using pymatgen
data_Er10Bi9Te
_symmetry_space_group_name_H-M   'P 1'
_cell_length_a   7.71323609
_cell_length_b   8.95709231
_cell_length_c   9.97171200
_cell_angle_alpha   103.02401996
_cell_angle_beta   97.42589704
_cell_angle_gamma   106.86351086
_symmetry_Int_Tables_number   1
_chemical_formula_structural   Er10Bi9Te
_chemical_formula_sum   'Er10 Bi9 Te1'
_cell_volume   628.19315907
_cell_formula_units_Z   1
loop_
 _symmetry_equiv_pos_site_id
 _symmetry_equiv_pos_as_xyz
  1  'x, y, z'
loop_
 _atom_site_type_symbol
 _atom_site_label
 _atom_site_symmetry_multiplicity
 _atom_site_fract_x
 _atom_site_fract_y
 _atom_site_fract_z
 _atom_site_occupancy
  Er  Er0  1  0.901089  0.549972  0.800314  1
  Er  Er1  1  0.697041  0.151327  0.399463  1
  Er  Er2  1  0.500409  0.750001  0.000548  1
  Er  Er3  1  0.697310  0.646689  0.398925  1
  Er  Er4  1  0.302690  0.353311  0.601075  1
  Er  Er5  1  0.100584  0.948663  0.196693  1
  Er  Er6  1  0.499591  0.249999  0.999452  1
  Er  Er7  1  0.302959  0.848673  0.600537  1
  Er  Er8  1  0.098911  0.450028  0.199686  1
  Er  Er9  1  0.899416  0.051337  0.803307  1
  Bi  Bi10  1  0.799924  0.600847  0.101158  1
  Bi  Bi11  1  0.599326  0.199263  0.699676  1
  Bi  Bi12  1  0.400674  0.800737  0.300324  1
  Bi  Bi13  1  0.800504  0.099848  0.101721  1
  Bi  Bi14  1  0.200076  0.399153  0.898842  1
  Bi  Bi15  1  0.601802  0.701120  0.699869  1
  Bi  Bi16  1  0.398198  0.298880  0.300131  1
  Bi  Bi17  1  0.199496  0.900152  0.898279  1
  Bi  Bi18  1  0.000000  0.500000  0.500000  1
  Te  Te19  1  0.000000  0.000000  0.500000  1
