# generated using pymatgen
data_Zr10Be2(BiPb)3
_symmetry_space_group_name_H-M   'P 1'
_cell_length_a   8.78457000
_cell_length_b   8.78457056
_cell_length_c   5.88537800
_cell_angle_alpha   90.00000000
_cell_angle_beta   90.00000000
_cell_angle_gamma   119.99999038
_symmetry_Int_Tables_number   1
_chemical_formula_structural   Zr10Be2(BiPb)3
_chemical_formula_sum   'Zr10 Be2 Bi3 Pb3'
_cell_volume   393.32004348
_cell_formula_units_Z   1
loop_
 _symmetry_equiv_pos_site_id
 _symmetry_equiv_pos_as_xyz
  1  'x, y, z'
loop_
 _atom_site_type_symbol
 _atom_site_label
 _atom_site_symmetry_multiplicity
 _atom_site_fract_x
 _atom_site_fract_y
 _atom_site_fract_z
 _atom_site_occupancy
  Zr  Zr0  1  0.666667  0.333333  0.002037  1
  Zr  Zr1  1  0.333333  0.666667  0.002037  1
  Zr  Zr2  1  0.333333  0.666667  0.497963  1
  Zr  Zr3  1  0.666667  0.333333  0.497963  1
  Zr  Zr4  1  0.753717  0.753717  0.750000  1
  Zr  Zr5  1  0.246283  0.000000  0.750000  1
  Zr  Zr6  1  0.000000  0.246283  0.750000  1
  Zr  Zr7  1  0.250589  0.250589  0.250000  1
  Zr  Zr8  1  0.749411  0.000000  0.250000  1
  Zr  Zr9  1  0.000000  0.749411  0.250000  1
  Be  Be10  1  0.000000  0.000000  0.007418  1
  Be  Be11  1  0.000000  0.000000  0.492582  1
  Bi  Bi12  1  0.392162  0.392162  0.750000  1
  Bi  Bi13  1  0.607838  0.000000  0.750000  1
  Bi  Bi14  1  0.000000  0.607838  0.750000  1
  Pb  Pb15  1  0.611196  0.611196  0.250000  1
  Pb  Pb16  1  0.388804  0.000000  0.250000  1
  Pb  Pb17  1  0.000000  0.388804  0.250000  1
