# generated using pymatgen
data_LaTm(ZnSn)2
_symmetry_space_group_name_H-M   'P 1'
_cell_length_a   4.55151000
_cell_length_b   4.55151062
_cell_length_c   16.42170000
_cell_angle_alpha   90.00000000
_cell_angle_beta   90.00000000
_cell_angle_gamma   119.99999550
_symmetry_Int_Tables_number   1
_chemical_formula_structural   LaTm(ZnSn)2
_chemical_formula_sum   'La2 Tm2 Zn4 Sn4'
_cell_volume   294.61837301
_cell_formula_units_Z   2
loop_
 _symmetry_equiv_pos_site_id
 _symmetry_equiv_pos_as_xyz
  1  'x, y, z'
loop_
 _atom_site_type_symbol
 _atom_site_label
 _atom_site_symmetry_multiplicity
 _atom_site_fract_x
 _atom_site_fract_y
 _atom_site_fract_z
 _atom_site_occupancy
  La  La0  1  0.000000  0.000000  0.000000  1
  La  La1  1  0.000000  0.000000  0.500000  1
  Tm  Tm2  1  0.000000  0.000000  0.250000  1
  Tm  Tm3  1  0.000000  0.000000  0.750000  1
  Zn  Zn4  1  0.333333  0.666667  0.165672  1
  Zn  Zn5  1  0.666667  0.333333  0.834328  1
  Zn  Zn6  1  0.666667  0.333333  0.665672  1
  Zn  Zn7  1  0.333333  0.666667  0.334328  1
  Sn  Sn8  1  0.333333  0.666667  0.620125  1
  Sn  Sn9  1  0.666667  0.333333  0.379875  1
  Sn  Sn10  1  0.666667  0.333333  0.120125  1
  Sn  Sn11  1  0.333333  0.666667  0.879875  1
