# generated using pymatgen
data_LaMgCoSn2
_symmetry_space_group_name_H-M   'P 1'
_cell_length_a   4.54978000
_cell_length_b   4.54978000
_cell_length_c   11.31942200
_cell_angle_alpha   90.00000000
_cell_angle_beta   90.00000000
_cell_angle_gamma   90.00000000
_symmetry_Int_Tables_number   1
_chemical_formula_structural   LaMgCoSn2
_chemical_formula_sum   'La2 Mg2 Co2 Sn4'
_cell_volume   234.31767302
_cell_formula_units_Z   2
loop_
 _symmetry_equiv_pos_site_id
 _symmetry_equiv_pos_as_xyz
  1  'x, y, z'
loop_
 _atom_site_type_symbol
 _atom_site_label
 _atom_site_symmetry_multiplicity
 _atom_site_fract_x
 _atom_site_fract_y
 _atom_site_fract_z
 _atom_site_occupancy
  La  La0  1  0.000000  0.500000  0.276818  1
  La  La1  1  0.500000  0.000000  0.723182  1
  Mg  Mg2  1  0.000000  0.000000  0.000000  1
  Mg  Mg3  1  0.500000  0.500000  0.000000  1
  Co  Co4  1  0.000000  0.500000  0.611184  1
  Co  Co5  1  0.500000  0.000000  0.388816  1
  Sn  Sn6  1  0.000000  0.000000  0.500000  1
  Sn  Sn7  1  0.500000  0.500000  0.500000  1
  Sn  Sn8  1  0.000000  0.500000  0.831923  1
  Sn  Sn9  1  0.500000  0.000000  0.168077  1
