# generated using pymatgen
data_Dy3SnBi2Rh3
_symmetry_space_group_name_H-M   'P 1'
_cell_length_a   7.56862600
_cell_length_b   7.63126972
_cell_length_c   3.98004600
_cell_angle_alpha   90.00000000
_cell_angle_beta   90.00000000
_cell_angle_gamma   119.72881527
_symmetry_Int_Tables_number   1
_chemical_formula_structural   Dy3SnBi2Rh3
_chemical_formula_sum   'Dy3 Sn1 Bi2 Rh3'
_cell_volume   199.62405214
_cell_formula_units_Z   1
loop_
 _symmetry_equiv_pos_site_id
 _symmetry_equiv_pos_as_xyz
  1  'x, y, z'
loop_
 _atom_site_type_symbol
 _atom_site_label
 _atom_site_symmetry_multiplicity
 _atom_site_fract_x
 _atom_site_fract_y
 _atom_site_fract_z
 _atom_site_occupancy
  Dy  Dy0  1  0.590685  0.000000  0.000000  1
  Dy  Dy1  1  0.403596  0.394090  0.000000  1
  Dy  Dy2  1  0.009506  0.605910  0.000000  1
  Sn  Sn3  1  0.263721  0.000000  0.500000  1
  Bi  Bi4  1  0.736808  0.734939  0.500000  1
  Bi  Bi5  1  0.001868  0.265061  0.500000  1
  Rh  Rh6  1  0.656541  0.326714  0.500000  1
  Rh  Rh7  1  0.007450  0.000000  0.000000  1
  Rh  Rh8  1  0.329826  0.673286  0.500000  1
