# generated using pymatgen
data_CaHo(Cu2P)4
_symmetry_space_group_name_H-M   'P 1'
_cell_length_a   7.25393298
_cell_length_b   7.25393298
_cell_length_c   3.80544900
_cell_angle_alpha   90.00000000
_cell_angle_beta   90.00000000
_cell_angle_gamma   89.59644485
_symmetry_Int_Tables_number   1
_chemical_formula_structural   CaHo(Cu2P)4
_chemical_formula_sum   'Ca1 Ho1 Cu8 P4'
_cell_volume   200.23602315
_cell_formula_units_Z   1
loop_
 _symmetry_equiv_pos_site_id
 _symmetry_equiv_pos_as_xyz
  1  'x, y, z'
loop_
 _atom_site_type_symbol
 _atom_site_label
 _atom_site_symmetry_multiplicity
 _atom_site_fract_x
 _atom_site_fract_y
 _atom_site_fract_z
 _atom_site_occupancy
  Ca  Ca0  1  0.500000  0.500000  0.500000  1
  Ho  Ho1  1  0.000000  0.000000  0.000000  1
  Cu  Cu2  1  0.664855  0.916228  0.500000  1
  Cu  Cu3  1  0.162801  0.584340  0.000000  1
  Cu  Cu4  1  0.415660  0.837199  0.000000  1
  Cu  Cu5  1  0.916228  0.664855  0.500000  1
  Cu  Cu6  1  0.837199  0.415660  0.000000  1
  Cu  Cu7  1  0.584340  0.162801  0.000000  1
  Cu  Cu8  1  0.083772  0.335145  0.500000  1
  Cu  Cu9  1  0.335145  0.083772  0.500000  1
  P  P10  1  0.280629  0.280629  0.000000  1
  P  P11  1  0.719371  0.719371  0.000000  1
  P  P12  1  0.786340  0.213660  0.500000  1
  P  P13  1  0.213660  0.786340  0.500000  1
