# generated using pymatgen
data_Ce2Cu(BiSb)2
_symmetry_space_group_name_H-M   'P 1'
_cell_length_a   4.50468700
_cell_length_b   4.50468700
_cell_length_c   9.46483100
_cell_angle_alpha   90.00000000
_cell_angle_beta   90.00000000
_cell_angle_gamma   90.00000000
_symmetry_Int_Tables_number   1
_chemical_formula_structural   Ce2Cu(BiSb)2
_chemical_formula_sum   'Ce2 Cu1 Bi2 Sb2'
_cell_volume   192.06229064
_cell_formula_units_Z   1
loop_
 _symmetry_equiv_pos_site_id
 _symmetry_equiv_pos_as_xyz
  1  'x, y, z'
loop_
 _atom_site_type_symbol
 _atom_site_label
 _atom_site_symmetry_multiplicity
 _atom_site_fract_x
 _atom_site_fract_y
 _atom_site_fract_z
 _atom_site_occupancy
  Ce  Ce0  1  0.500000  0.000000  0.724691  1
  Ce  Ce1  1  0.000000  0.500000  0.275309  1
  Cu  Cu2  1  0.500000  0.500000  0.500000  1
  Bi  Bi3  1  0.500000  0.500000  0.000000  1
  Bi  Bi4  1  0.000000  0.000000  0.000000  1
  Sb  Sb5  1  0.500000  0.000000  0.351203  1
  Sb  Sb6  1  0.000000  0.500000  0.648797  1
