# generated using pymatgen
data_Yb3Sn3GePt2
_symmetry_space_group_name_H-M   'P 1'
_cell_length_a   7.45096200
_cell_length_b   7.45096254
_cell_length_c   4.20648200
_cell_angle_alpha   90.00000000
_cell_angle_beta   90.00000000
_cell_angle_gamma   119.99999760
_symmetry_Int_Tables_number   1
_chemical_formula_structural   Yb3Sn3GePt2
_chemical_formula_sum   'Yb3 Sn3 Ge1 Pt2'
_cell_volume   202.24342229
_cell_formula_units_Z   1
loop_
 _symmetry_equiv_pos_site_id
 _symmetry_equiv_pos_as_xyz
  1  'x, y, z'
loop_
 _atom_site_type_symbol
 _atom_site_label
 _atom_site_symmetry_multiplicity
 _atom_site_fract_x
 _atom_site_fract_y
 _atom_site_fract_z
 _atom_site_occupancy
  Yb  Yb0  1  0.407387  0.412271  0.000000  1
  Yb  Yb1  1  0.587729  0.995116  0.000000  1
  Yb  Yb2  1  0.004884  0.592613  0.000000  1
  Sn  Sn3  1  0.011171  0.259344  0.500000  1
  Sn  Sn4  1  0.740656  0.751827  0.500000  1
  Sn  Sn5  1  0.248173  0.988829  0.500000  1
  Ge  Ge6  1  0.666667  0.333333  0.500000  1
  Pt  Pt7  1  0.000000  0.000000  0.000000  1
  Pt  Pt8  1  0.333333  0.666667  0.500000  1
