# generated using pymatgen
data_TbEr2GaSn6
_symmetry_space_group_name_H-M   'P 1'
_cell_length_a   13.07245760
_cell_length_b   13.07245899
_cell_length_c   4.33955000
_cell_angle_alpha   90.00000000
_cell_angle_beta   90.00000000
_cell_angle_gamma   159.98010453
_symmetry_Int_Tables_number   1
_chemical_formula_structural   TbEr2GaSn6
_chemical_formula_sum   'Tb1 Er2 Ga1 Sn6'
_cell_volume   253.87797219
_cell_formula_units_Z   1
loop_
 _symmetry_equiv_pos_site_id
 _symmetry_equiv_pos_as_xyz
  1  'x, y, z'
loop_
 _atom_site_type_symbol
 _atom_site_label
 _atom_site_symmetry_multiplicity
 _atom_site_fract_x
 _atom_site_fract_y
 _atom_site_fract_z
 _atom_site_occupancy
  Tb  Tb0  1  0.000000  0.000000  0.500000  1
  Er  Er1  1  0.310699  0.689301  0.000000  1
  Er  Er2  1  0.689301  0.310699  0.000000  1
  Ga  Ga3  1  0.500000  0.500000  0.000000  1
  Sn  Sn4  1  0.404877  0.595123  0.500000  1
  Sn  Sn5  1  0.595123  0.404877  0.500000  1
  Sn  Sn6  1  0.093340  0.906660  0.000000  1
  Sn  Sn7  1  0.906660  0.093340  0.000000  1
  Sn  Sn8  1  0.210812  0.789188  0.500000  1
  Sn  Sn9  1  0.789188  0.210812  0.500000  1
