# generated using pymatgen
data_Yb3Cd3Si2Sn
_symmetry_space_group_name_H-M   'P 1'
_cell_length_a   7.35030900
_cell_length_b   7.35030984
_cell_length_c   4.55936300
_cell_angle_alpha   90.00000000
_cell_angle_beta   90.00000000
_cell_angle_gamma   120.00000072
_symmetry_Int_Tables_number   1
_chemical_formula_structural   Yb3Cd3Si2Sn
_chemical_formula_sum   'Yb3 Cd3 Si2 Sn1'
_cell_volume   213.32710624
_cell_formula_units_Z   1
loop_
 _symmetry_equiv_pos_site_id
 _symmetry_equiv_pos_as_xyz
  1  'x, y, z'
loop_
 _atom_site_type_symbol
 _atom_site_label
 _atom_site_symmetry_multiplicity
 _atom_site_fract_x
 _atom_site_fract_y
 _atom_site_fract_z
 _atom_site_occupancy
  Yb  Yb0  1  0.000000  0.431291  0.500000  1
  Yb  Yb1  1  0.568709  0.568709  0.500000  1
  Yb  Yb2  1  0.431291  0.000000  0.500000  1
  Cd  Cd3  1  0.000000  0.731496  0.000000  1
  Cd  Cd4  1  0.268504  0.268504  0.000000  1
  Cd  Cd5  1  0.731496  0.000000  0.000000  1
  Si  Si6  1  0.333333  0.666667  0.000000  1
  Si  Si7  1  0.666667  0.333333  0.000000  1
  Sn  Sn8  1  0.000000  0.000000  0.500000  1
