# generated using pymatgen
data_TbNd6HoSb20
_symmetry_space_group_name_H-M   'P 1'
_cell_length_a   4.26158000
_cell_length_b   13.48721972
_cell_length_c   15.12345740
_cell_angle_alpha   77.98545538
_cell_angle_beta   90.00000000
_cell_angle_gamma   90.00000000
_symmetry_Int_Tables_number   1
_chemical_formula_structural   TbNd6HoSb20
_chemical_formula_sum   'Tb1 Nd6 Ho1 Sb20'
_cell_volume   850.20785159
_cell_formula_units_Z   1
loop_
 _symmetry_equiv_pos_site_id
 _symmetry_equiv_pos_as_xyz
  1  'x, y, z'
loop_
 _atom_site_type_symbol
 _atom_site_label
 _atom_site_symmetry_multiplicity
 _atom_site_fract_x
 _atom_site_fract_y
 _atom_site_fract_z
 _atom_site_occupancy
  Tb  Tb0  1  0.750000  0.604036  0.227262  1
  Nd  Nd1  1  0.750000  0.335788  0.142643  1
  Nd  Nd2  1  0.250000  0.949805  0.361056  1
  Nd  Nd3  1  0.250000  0.664120  0.857124  1
  Nd  Nd4  1  0.250000  0.668013  0.576560  1
  Nd  Nd5  1  0.750000  0.050275  0.638991  1
  Nd  Nd6  1  0.750000  0.331883  0.423675  1
  Ho  Ho7  1  0.250000  0.396326  0.772670  1
  Sb  Sb8  1  0.750000  0.850732  0.820400  1
  Sb  Sb9  1  0.250000  0.861788  0.675438  1
  Sb  Sb10  1  0.250000  0.142636  0.478001  1
  Sb  Sb11  1  0.750000  0.284717  0.934557  1
  Sb  Sb12  1  0.250000  0.147018  0.781084  1
  Sb  Sb13  1  0.750000  0.574093  0.441718  1
  Sb  Sb14  1  0.750000  0.138254  0.324573  1
  Sb  Sb15  1  0.250000  0.706728  0.350481  1
  Sb  Sb16  1  0.750000  0.293390  0.649905  1
  Sb  Sb17  1  0.750000  0.853442  0.218995  1
  Sb  Sb18  1  0.250000  0.420729  0.972562  1
  Sb  Sb19  1  0.250000  0.425934  0.558778  1
  Sb  Sb20  1  0.750000  0.571602  0.736617  1
  Sb  Sb21  1  0.250000  0.427334  0.263649  1
  Sb  Sb22  1  0.750000  0.857389  0.522006  1
  Sb  Sb23  1  0.750000  0.030836  0.891555  1
  Sb  Sb24  1  0.250000  0.715362  0.064872  1
  Sb  Sb25  1  0.250000  0.969256  0.108402  1
  Sb  Sb26  1  0.250000  0.149227  0.179600  1
  Sb  Sb27  1  0.750000  0.579289  0.026825  1
