# generated using pymatgen
data_TbTm(ZrSb)2
_symmetry_space_group_name_H-M   'P 1'
_cell_length_a   4.34370900
_cell_length_b   4.34370900
_cell_length_c   8.11906200
_cell_angle_alpha   90.00000000
_cell_angle_beta   90.00000000
_cell_angle_gamma   90.00000000
_symmetry_Int_Tables_number   1
_chemical_formula_structural   TbTm(ZrSb)2
_chemical_formula_sum   'Tb1 Tm1 Zr2 Sb2'
_cell_volume   153.18890195
_cell_formula_units_Z   1
loop_
 _symmetry_equiv_pos_site_id
 _symmetry_equiv_pos_as_xyz
  1  'x, y, z'
loop_
 _atom_site_type_symbol
 _atom_site_label
 _atom_site_symmetry_multiplicity
 _atom_site_fract_x
 _atom_site_fract_y
 _atom_site_fract_z
 _atom_site_occupancy
  Tb  Tb0  1  0.500000  0.000000  0.652129  1
  Tm  Tm1  1  0.000000  0.500000  0.345916  1
  Zr  Zr2  1  0.000000  0.000000  0.001036  1
  Zr  Zr3  1  0.500000  0.500000  0.001036  1
  Sb  Sb4  1  0.000000  0.500000  0.733650  1
  Sb  Sb5  1  0.500000  0.000000  0.266233  1
