# generated using pymatgen
data_AlGaNi11Te4
_symmetry_space_group_name_H-M   'P 1'
_cell_length_a   3.70448400
_cell_length_b   3.70448400
_cell_length_c   18.98546800
_cell_angle_alpha   90.00000000
_cell_angle_beta   90.00000000
_cell_angle_gamma   90.00000000
_symmetry_Int_Tables_number   1
_chemical_formula_structural   AlGaNi11Te4
_chemical_formula_sum   'Al1 Ga1 Ni11 Te4'
_cell_volume   260.54140685
_cell_formula_units_Z   1
loop_
 _symmetry_equiv_pos_site_id
 _symmetry_equiv_pos_as_xyz
  1  'x, y, z'
loop_
 _atom_site_type_symbol
 _atom_site_label
 _atom_site_symmetry_multiplicity
 _atom_site_fract_x
 _atom_site_fract_y
 _atom_site_fract_z
 _atom_site_occupancy
  Al  Al0  1  0.000000  0.000000  0.000571  1
  Ga  Ga1  1  0.500000  0.500000  0.500298  1
  Ni  Ni2  1  0.000000  0.500000  0.411461  1
  Ni  Ni3  1  0.500000  0.000000  0.912111  1
  Ni  Ni4  1  0.500000  0.000000  0.411461  1
  Ni  Ni5  1  0.000000  0.500000  0.912111  1
  Ni  Ni6  1  0.500000  0.000000  0.089131  1
  Ni  Ni7  1  0.000000  0.500000  0.589287  1
  Ni  Ni8  1  0.000000  0.500000  0.089131  1
  Ni  Ni9  1  0.500000  0.000000  0.589287  1
  Ni  Ni10  1  0.500000  0.500000  0.000512  1
  Ni  Ni11  1  0.000000  0.000000  0.500869  1
  Ni  Ni12  1  0.500000  0.500000  0.309124  1
  Te  Te13  1  0.000000  0.000000  0.316824  1
  Te  Te14  1  0.500000  0.500000  0.823629  1
  Te  Te15  1  0.500000  0.500000  0.176594  1
  Te  Te16  1  0.000000  0.000000  0.677196  1
