# generated using pymatgen
data_Ca2Zn2CuAs3
_symmetry_space_group_name_H-M   'P 1'
_cell_length_a   4.20476800
_cell_length_b   4.20476808
_cell_length_c   21.90207400
_cell_angle_alpha   90.00000000
_cell_angle_beta   90.00000000
_cell_angle_gamma   119.99999935
_symmetry_Int_Tables_number   1
_chemical_formula_structural   Ca2Zn2CuAs3
_chemical_formula_sum   'Ca4 Zn4 Cu2 As6'
_cell_volume   335.35127494
_cell_formula_units_Z   2
loop_
 _symmetry_equiv_pos_site_id
 _symmetry_equiv_pos_as_xyz
  1  'x, y, z'
loop_
 _atom_site_type_symbol
 _atom_site_label
 _atom_site_symmetry_multiplicity
 _atom_site_fract_x
 _atom_site_fract_y
 _atom_site_fract_z
 _atom_site_occupancy
  Ca  Ca0  1  0.000000  0.000000  0.658628  1
  Ca  Ca1  1  0.000000  0.000000  0.341372  1
  Ca  Ca2  1  0.000000  0.000000  0.158628  1
  Ca  Ca3  1  0.000000  0.000000  0.841372  1
  Zn  Zn4  1  0.333333  0.666667  0.957701  1
  Zn  Zn5  1  0.666667  0.333333  0.457701  1
  Zn  Zn6  1  0.666667  0.333333  0.042299  1
  Zn  Zn7  1  0.333333  0.666667  0.542299  1
  Cu  Cu8  1  0.666667  0.333333  0.750000  1
  Cu  Cu9  1  0.333333  0.666667  0.250000  1
  As  As10  1  0.666667  0.333333  0.577137  1
  As  As11  1  0.333333  0.666667  0.422863  1
  As  As12  1  0.333333  0.666667  0.750000  1
  As  As13  1  0.666667  0.333333  0.922863  1
  As  As14  1  0.333333  0.666667  0.077137  1
  As  As15  1  0.666667  0.333333  0.250000  1
