# generated using pymatgen
data_Yb2EuAg3Sn2Pb
_symmetry_space_group_name_H-M   'P 1'
_cell_length_a   4.91255000
_cell_length_b   4.91254992
_cell_length_c   11.17553600
_cell_angle_alpha   90.00000000
_cell_angle_beta   90.00000000
_cell_angle_gamma   120.00000057
_symmetry_Int_Tables_number   1
_chemical_formula_structural   Yb2EuAg3Sn2Pb
_chemical_formula_sum   'Yb2 Eu1 Ag3 Sn2 Pb1'
_cell_volume   233.56778972
_cell_formula_units_Z   1
loop_
 _symmetry_equiv_pos_site_id
 _symmetry_equiv_pos_as_xyz
  1  'x, y, z'
loop_
 _atom_site_type_symbol
 _atom_site_label
 _atom_site_symmetry_multiplicity
 _atom_site_fract_x
 _atom_site_fract_y
 _atom_site_fract_z
 _atom_site_occupancy
  Yb  Yb0  1  0.666667  0.333333  0.663120  1
  Yb  Yb1  1  0.666667  0.333333  0.336104  1
  Eu  Eu2  1  0.666667  0.333333  0.006478  1
  Ag  Ag3  1  0.000000  0.000000  0.785240  1
  Ag  Ag4  1  0.000000  0.000000  0.197079  1
  Ag  Ag5  1  0.333333  0.666667  0.493825  1
  Sn  Sn6  1  0.000000  0.000000  0.509158  1
  Sn  Sn7  1  0.333333  0.666667  0.159362  1
  Pb  Pb8  1  0.333333  0.666667  0.849634  1
