# generated using pymatgen
data_Pr10AgPb6I
_symmetry_space_group_name_H-M   'P 1'
_cell_length_a   9.79998200
_cell_length_b   9.79998118
_cell_length_c   6.89567600
_cell_angle_alpha   90.00000000
_cell_angle_beta   90.00000000
_cell_angle_gamma   119.99999601
_symmetry_Int_Tables_number   1
_chemical_formula_structural   Pr10AgPb6I
_chemical_formula_sum   'Pr10 Ag1 Pb6 I1'
_cell_volume   573.53247831
_cell_formula_units_Z   1
loop_
 _symmetry_equiv_pos_site_id
 _symmetry_equiv_pos_as_xyz
  1  'x, y, z'
loop_
 _atom_site_type_symbol
 _atom_site_label
 _atom_site_symmetry_multiplicity
 _atom_site_fract_x
 _atom_site_fract_y
 _atom_site_fract_z
 _atom_site_occupancy
  Pr  Pr0  1  0.728089  0.728089  0.744834  1
  Pr  Pr1  1  0.271911  0.000000  0.744834  1
  Pr  Pr2  1  0.000000  0.271911  0.744834  1
  Pr  Pr3  1  0.271911  0.271911  0.255166  1
  Pr  Pr4  1  0.728089  0.000000  0.255166  1
  Pr  Pr5  1  0.000000  0.728089  0.255166  1
  Pr  Pr6  1  0.666667  0.333333  0.000000  1
  Pr  Pr7  1  0.333333  0.666667  0.000000  1
  Pr  Pr8  1  0.333333  0.666667  0.500000  1
  Pr  Pr9  1  0.666667  0.333333  0.500000  1
  Ag  Ag10  1  0.000000  0.000000  0.500000  1
  Pb  Pb11  1  0.380843  0.380843  0.748727  1
  Pb  Pb12  1  0.619157  0.000000  0.748727  1
  Pb  Pb13  1  0.000000  0.619157  0.748727  1
  Pb  Pb14  1  0.619157  0.619157  0.251273  1
  Pb  Pb15  1  0.380843  0.000000  0.251273  1
  Pb  Pb16  1  0.000000  0.380843  0.251273  1
  I  I17  1  0.000000  0.000000  0.000000  1
