# generated using pymatgen
data_Na5Tc3(Ni4As3)4
_symmetry_space_group_name_H-M   'P 1'
_cell_length_a   12.60727900
_cell_length_b   12.60727848
_cell_length_c   3.77980200
_cell_angle_alpha   90.00000000
_cell_angle_beta   90.00000000
_cell_angle_gamma   120.00000398
_symmetry_Int_Tables_number   1
_chemical_formula_structural   Na5Tc3(Ni4As3)4
_chemical_formula_sum   'Na5 Tc3 Ni16 As12'
_cell_volume   520.28628128
_cell_formula_units_Z   1
loop_
 _symmetry_equiv_pos_site_id
 _symmetry_equiv_pos_as_xyz
  1  'x, y, z'
loop_
 _atom_site_type_symbol
 _atom_site_label
 _atom_site_symmetry_multiplicity
 _atom_site_fract_x
 _atom_site_fract_y
 _atom_site_fract_z
 _atom_site_occupancy
  Na  Na0  1  0.181276  0.181276  0.500000  1
  Na  Na1  1  0.818724  0.000000  0.500000  1
  Na  Na2  1  0.000000  0.818724  0.500000  1
  Na  Na3  1  0.333333  0.666667  0.000000  1
  Na  Na4  1  0.666667  0.333333  0.000000  1
  Tc  Tc5  1  0.556081  0.556081  0.000000  1
  Tc  Tc6  1  0.443919  0.000000  0.000000  1
  Tc  Tc7  1  0.000000  0.443919  0.000000  1
  Ni  Ni8  1  0.714932  0.714932  0.500000  1
  Ni  Ni9  1  0.285068  0.000000  0.500000  1
  Ni  Ni10  1  0.000000  0.285068  0.500000  1
  Ni  Ni11  1  0.179309  0.375971  0.000000  1
  Ni  Ni12  1  0.624029  0.803339  0.000000  1
  Ni  Ni13  1  0.196661  0.820691  0.000000  1
  Ni  Ni14  1  0.803339  0.624029  0.000000  1
  Ni  Ni15  1  0.820691  0.196661  0.000000  1
  Ni  Ni16  1  0.375971  0.179309  0.000000  1
  Ni  Ni17  1  0.353272  0.477347  0.500000  1
  Ni  Ni18  1  0.522653  0.875926  0.500000  1
  Ni  Ni19  1  0.124074  0.646728  0.500000  1
  Ni  Ni20  1  0.875926  0.522653  0.500000  1
  Ni  Ni21  1  0.646728  0.124074  0.500000  1
  Ni  Ni22  1  0.477347  0.353272  0.500000  1
  Ni  Ni23  1  0.000000  0.000000  0.000000  1
  As  As24  1  0.821863  0.821863  0.000000  1
  As  As25  1  0.178137  0.000000  0.000000  1
  As  As26  1  0.000000  0.178137  0.000000  1
  As  As27  1  0.165692  0.485745  0.500000  1
  As  As28  1  0.514255  0.679947  0.500000  1
  As  As29  1  0.320053  0.834308  0.500000  1
  As  As30  1  0.679947  0.514255  0.500000  1
  As  As31  1  0.834308  0.320053  0.500000  1
  As  As32  1  0.485745  0.165692  0.500000  1
  As  As33  1  0.359380  0.359380  0.000000  1
  As  As34  1  0.640620  0.000000  0.000000  1
  As  As35  1  0.000000  0.640620  0.000000  1
