# generated using pymatgen
data_La2CeSbTe2
_symmetry_space_group_name_H-M   'P 1'
_cell_length_a   7.89020627
_cell_length_b   7.89020582
_cell_length_c   7.89020578
_cell_angle_alpha   146.59874578
_cell_angle_beta   131.86131256
_cell_angle_gamma   59.85661831
_symmetry_Int_Tables_number   1
_chemical_formula_structural   La2CeSbTe2
_chemical_formula_sum   'La2 Ce1 Sb1 Te2'
_cell_volume   199.57392771
_cell_formula_units_Z   1
loop_
 _symmetry_equiv_pos_site_id
 _symmetry_equiv_pos_as_xyz
  1  'x, y, z'
loop_
 _atom_site_type_symbol
 _atom_site_label
 _atom_site_symmetry_multiplicity
 _atom_site_fract_x
 _atom_site_fract_y
 _atom_site_fract_z
 _atom_site_occupancy
  La  La0  1  0.999602  0.999602  0.000000  1
  La  La1  1  0.337431  0.337431  0.000000  1
  Ce  Ce2  1  0.663158  0.663158  0.000000  1
  Sb  Sb3  1  0.502797  0.002797  0.500000  1
  Te  Te4  1  0.167680  0.667680  0.500000  1
  Te  Te5  1  0.829332  0.329332  0.500000  1
