# generated using pymatgen
data_Rb3Bi2(AsO4)3
_symmetry_space_group_name_H-M   'P 1'
_cell_length_a   9.99835901
_cell_length_b   9.99835903
_cell_length_c   7.17743700
_cell_angle_alpha   72.68308400
_cell_angle_beta   72.68308397
_cell_angle_gamma   89.28426027
_symmetry_Int_Tables_number   1
_chemical_formula_structural   Rb3Bi2(AsO4)3
_chemical_formula_sum   'Rb6 Bi4 As6 O24'
_cell_volume   651.65321778
_cell_formula_units_Z   2
loop_
 _symmetry_equiv_pos_site_id
 _symmetry_equiv_pos_as_xyz
  1  'x, y, z'
loop_
 _atom_site_type_symbol
 _atom_site_label
 _atom_site_symmetry_multiplicity
 _atom_site_fract_x
 _atom_site_fract_y
 _atom_site_fract_z
 _atom_site_occupancy
  Rb  Rb0  1  0.981191  0.018809  0.250000  1
  Rb  Rb1  1  0.276349  0.723651  0.750000  1
  Rb  Rb2  1  0.723651  0.276349  0.250000  1
  Rb  Rb3  1  0.500000  0.500000  0.000000  1
  Rb  Rb4  1  0.018809  0.981191  0.750000  1
  Rb  Rb5  1  0.500000  0.500000  0.500000  1
  Bi  Bi6  1  0.615051  0.911681  0.165759  1
  Bi  Bi7  1  0.911681  0.615051  0.665759  1
  Bi  Bi8  1  0.088319  0.384949  0.334241  1
  Bi  Bi9  1  0.384949  0.088319  0.834241  1
  As  As10  1  0.861623  0.649743  0.138001  1
  As  As11  1  0.138377  0.350257  0.861999  1
  As  As12  1  0.245078  0.754922  0.250000  1
  As  As13  1  0.350257  0.138377  0.361999  1
  As  As14  1  0.649743  0.861623  0.638001  1
  As  As15  1  0.754922  0.245078  0.750000  1
  O  O16  1  0.421048  0.288128  0.371753  1
  O  O17  1  0.548127  0.915195  0.844214  1
  O  O18  1  0.451873  0.084805  0.155786  1
  O  O19  1  0.394505  0.761005  0.317960  1
  O  O20  1  0.578952  0.711872  0.628247  1
  O  O21  1  0.915195  0.548127  0.344214  1
  O  O22  1  0.660992  0.991701  0.409549  1
  O  O23  1  0.991701  0.660992  0.909549  1
  O  O24  1  0.764890  0.102370  0.954440  1
  O  O25  1  0.159709  0.185713  0.834821  1
  O  O26  1  0.238995  0.605495  0.182040  1
  O  O27  1  0.102370  0.764890  0.454440  1
  O  O28  1  0.840291  0.814287  0.165179  1
  O  O29  1  0.814287  0.840291  0.665179  1
  O  O30  1  0.288128  0.421048  0.871753  1
  O  O31  1  0.008299  0.339008  0.090451  1
  O  O32  1  0.339008  0.008299  0.590451  1
  O  O33  1  0.084805  0.451873  0.655786  1
  O  O34  1  0.761005  0.394505  0.817960  1
  O  O35  1  0.897630  0.235110  0.545560  1
  O  O36  1  0.235110  0.897630  0.045560  1
  O  O37  1  0.605495  0.238995  0.682040  1
  O  O38  1  0.185713  0.159709  0.334821  1
  O  O39  1  0.711872  0.578952  0.128247  1
