# generated using pymatgen
data_Ba3ZrRh2O9
_symmetry_space_group_name_H-M   'P 1'
_cell_length_a   5.87849900
_cell_length_b   5.87849921
_cell_length_c   14.60899800
_cell_angle_alpha   90.00000000
_cell_angle_beta   90.00000000
_cell_angle_gamma   119.99999320
_symmetry_Int_Tables_number   1
_chemical_formula_structural   Ba3ZrRh2O9
_chemical_formula_sum   'Ba6 Zr2 Rh4 O18'
_cell_volume   437.20387633
_cell_formula_units_Z   2
loop_
 _symmetry_equiv_pos_site_id
 _symmetry_equiv_pos_as_xyz
  1  'x, y, z'
loop_
 _atom_site_type_symbol
 _atom_site_label
 _atom_site_symmetry_multiplicity
 _atom_site_fract_x
 _atom_site_fract_y
 _atom_site_fract_z
 _atom_site_occupancy
  Ba  Ba0  1  0.333333  0.666667  0.908052  1
  Ba  Ba1  1  0.666667  0.333333  0.091948  1
  Ba  Ba2  1  0.666667  0.333333  0.408052  1
  Ba  Ba3  1  0.333333  0.666667  0.591948  1
  Ba  Ba4  1  0.000000  0.000000  0.250000  1
  Ba  Ba5  1  0.000000  0.000000  0.750000  1
  Zr  Zr6  1  0.000000  0.000000  0.500000  1
  Zr  Zr7  1  0.000000  0.000000  0.000000  1
  Rh  Rh8  1  0.333333  0.666667  0.339674  1
  Rh  Rh9  1  0.666667  0.333333  0.839674  1
  Rh  Rh10  1  0.333333  0.666667  0.160326  1
  Rh  Rh11  1  0.666667  0.333333  0.660326  1
  O  O12  1  0.661356  0.830678  0.417538  1
  O  O13  1  0.338644  0.169322  0.582462  1
  O  O14  1  0.486513  0.513487  0.250000  1
  O  O15  1  0.338644  0.169322  0.917538  1
  O  O16  1  0.830678  0.661356  0.917538  1
  O  O17  1  0.513487  0.026973  0.750000  1
  O  O18  1  0.169322  0.338644  0.082462  1
  O  O19  1  0.169322  0.830678  0.082462  1
  O  O20  1  0.169322  0.338644  0.417538  1
  O  O21  1  0.026973  0.513487  0.250000  1
  O  O22  1  0.973027  0.486513  0.750000  1
  O  O23  1  0.661356  0.830678  0.082462  1
  O  O24  1  0.513487  0.486513  0.750000  1
  O  O25  1  0.486513  0.973027  0.250000  1
  O  O26  1  0.830678  0.661356  0.582462  1
  O  O27  1  0.830678  0.169322  0.582462  1
  O  O28  1  0.830678  0.169322  0.917538  1
  O  O29  1  0.169322  0.830678  0.417538  1
