# generated using pymatgen
data_Ba4InBiO8
_symmetry_space_group_name_H-M   'P 1'
_cell_length_a   7.39516372
_cell_length_b   7.39516429
_cell_length_c   6.13189400
_cell_angle_alpha   90.00000000
_cell_angle_beta   90.00000000
_cell_angle_gamma   131.03150199
_symmetry_Int_Tables_number   1
_chemical_formula_structural   Ba4InBiO8
_chemical_formula_sum   'Ba4 In1 Bi1 O8'
_cell_volume   252.96616540
_cell_formula_units_Z   1
loop_
 _symmetry_equiv_pos_site_id
 _symmetry_equiv_pos_as_xyz
  1  'x, y, z'
loop_
 _atom_site_type_symbol
 _atom_site_label
 _atom_site_symmetry_multiplicity
 _atom_site_fract_x
 _atom_site_fract_y
 _atom_site_fract_z
 _atom_site_occupancy
  Ba  Ba0  1  0.353318  0.646682  0.000000  1
  Ba  Ba1  1  0.856064  0.143936  0.500000  1
  Ba  Ba2  1  0.143936  0.856064  0.500000  1
  Ba  Ba3  1  0.646682  0.353318  0.000000  1
  In  In4  1  0.000000  0.000000  0.000000  1
  Bi  Bi5  1  0.500000  0.500000  0.500000  1
  O  O6  1  0.252744  0.252744  0.744375  1
  O  O7  1  0.747256  0.747256  0.255625  1
  O  O8  1  0.747256  0.747256  0.744375  1
  O  O9  1  0.252744  0.252744  0.255625  1
  O  O10  1  0.160638  0.839362  0.000000  1
  O  O11  1  0.661068  0.338932  0.500000  1
  O  O12  1  0.338932  0.661068  0.500000  1
  O  O13  1  0.839362  0.160638  0.000000  1
