# generated using pymatgen
data_Ba2HfSnO6
_symmetry_space_group_name_H-M   'P 1'
_cell_length_a   5.93066614
_cell_length_b   5.93066643
_cell_length_c   5.93066700
_cell_angle_alpha   59.99999123
_cell_angle_beta   59.99998962
_cell_angle_gamma   59.99998181
_symmetry_Int_Tables_number   1
_chemical_formula_structural   Ba2HfSnO6
_chemical_formula_sum   'Ba2 Hf1 Sn1 O6'
_cell_volume   147.50114558
_cell_formula_units_Z   1
loop_
 _symmetry_equiv_pos_site_id
 _symmetry_equiv_pos_as_xyz
  1  'x, y, z'
loop_
 _atom_site_type_symbol
 _atom_site_label
 _atom_site_symmetry_multiplicity
 _atom_site_fract_x
 _atom_site_fract_y
 _atom_site_fract_z
 _atom_site_occupancy
  Ba  Ba0  1  0.250001  0.250001  0.250001  1
  Ba  Ba1  1  0.750001  0.750001  0.750001  1
  Hf  Hf2  1  0.000000  0.000000  0.000000  1
  Sn  Sn3  1  0.499999  0.499999  0.499999  1
  O  O4  1  0.750515  0.750515  0.249484  1
  O  O5  1  0.750515  0.249484  0.249486  1
  O  O6  1  0.249484  0.750515  0.249486  1
  O  O7  1  0.750514  0.249484  0.750515  1
  O  O8  1  0.249484  0.750514  0.750515  1
  O  O9  1  0.249485  0.249485  0.750515  1
