# generated using pymatgen
data_Ba3TbDyWO9
_symmetry_space_group_name_H-M   'P 1'
_cell_length_a   6.12367400
_cell_length_b   6.12367415
_cell_length_c   7.48436100
_cell_angle_alpha   90.00000000
_cell_angle_beta   90.00000000
_cell_angle_gamma   119.99998838
_symmetry_Int_Tables_number   1
_chemical_formula_structural   Ba3TbDyWO9
_chemical_formula_sum   'Ba3 Tb1 Dy1 W1 O9'
_cell_volume   243.05779033
_cell_formula_units_Z   1
loop_
 _symmetry_equiv_pos_site_id
 _symmetry_equiv_pos_as_xyz
  1  'x, y, z'
loop_
 _atom_site_type_symbol
 _atom_site_label
 _atom_site_symmetry_multiplicity
 _atom_site_fract_x
 _atom_site_fract_y
 _atom_site_fract_z
 _atom_site_occupancy
  Ba  Ba0  1  0.000000  0.000000  0.500144  1
  Ba  Ba1  1  0.666667  0.333333  0.813288  1
  Ba  Ba2  1  0.333333  0.666667  0.186621  1
  Tb  Tb3  1  0.666667  0.333333  0.329630  1
  Dy  Dy4  1  0.333333  0.666667  0.670167  1
  W  W5  1  0.000000  0.000000  0.999458  1
  O  O6  1  0.696007  0.848003  0.849705  1
  O  O7  1  0.303343  0.151672  0.150028  1
  O  O8  1  0.000871  0.500435  0.500498  1
  O  O9  1  0.499565  0.999129  0.500498  1
  O  O10  1  0.151997  0.303993  0.849705  1
  O  O11  1  0.848328  0.696657  0.150028  1
  O  O12  1  0.499565  0.500435  0.500498  1
  O  O13  1  0.151997  0.848003  0.849705  1
  O  O14  1  0.848328  0.151672  0.150028  1
