# generated using pymatgen
data_ThVN3
_symmetry_space_group_name_H-M   'P 1'
_cell_length_a   5.47835800
_cell_length_b   5.52712700
_cell_length_c   7.74479400
_cell_angle_alpha   90.00000000
_cell_angle_beta   90.00000000
_cell_angle_gamma   90.00000000
_symmetry_Int_Tables_number   1
_chemical_formula_structural   ThVN3
_chemical_formula_sum   'Th4 V4 N12'
_cell_volume   234.50911274
_cell_formula_units_Z   4
loop_
 _symmetry_equiv_pos_site_id
 _symmetry_equiv_pos_as_xyz
  1  'x, y, z'
loop_
 _atom_site_type_symbol
 _atom_site_label
 _atom_site_symmetry_multiplicity
 _atom_site_fract_x
 _atom_site_fract_y
 _atom_site_fract_z
 _atom_site_occupancy
  Th  Th0  1  0.503050  0.539688  0.250000  1
  Th  Th1  1  0.996950  0.039688  0.250000  1
  Th  Th2  1  0.496950  0.460312  0.750000  1
  Th  Th3  1  0.003050  0.960312  0.750000  1
  V  V4  1  0.000000  0.500000  0.000000  1
  V  V5  1  0.500000  0.000000  0.500000  1
  V  V6  1  0.000000  0.500000  0.500000  1
  V  V7  1  0.500000  0.000000  0.000000  1
  N  N8  1  0.434691  0.989411  0.250000  1
  N  N9  1  0.065309  0.489411  0.250000  1
  N  N10  1  0.565309  0.010589  0.750000  1
  N  N11  1  0.934691  0.510589  0.750000  1
  N  N12  1  0.787419  0.791555  0.034390  1
  N  N13  1  0.712581  0.291555  0.465610  1
  N  N14  1  0.212581  0.208445  0.534390  1
  N  N15  1  0.287419  0.708445  0.965610  1
  N  N16  1  0.212581  0.208445  0.965610  1
  N  N17  1  0.287419  0.708445  0.534390  1
  N  N18  1  0.787419  0.791555  0.465610  1
  N  N19  1  0.712581  0.291555  0.034390  1
