# generated using pymatgen
data_Pr4AlOs7
_symmetry_space_group_name_H-M   'P 1'
_cell_length_a   5.46177300
_cell_length_b   5.46177310
_cell_length_c   8.93647200
_cell_angle_alpha   90.00000000
_cell_angle_beta   90.00000000
_cell_angle_gamma   120.00000542
_symmetry_Int_Tables_number   1
_chemical_formula_structural   Pr4AlOs7
_chemical_formula_sum   'Pr4 Al1 Os7'
_cell_volume   230.86814193
_cell_formula_units_Z   1
loop_
 _symmetry_equiv_pos_site_id
 _symmetry_equiv_pos_as_xyz
  1  'x, y, z'
loop_
 _atom_site_type_symbol
 _atom_site_label
 _atom_site_symmetry_multiplicity
 _atom_site_fract_x
 _atom_site_fract_y
 _atom_site_fract_z
 _atom_site_occupancy
  Pr  Pr0  1  0.333333  0.666667  0.428587  1
  Pr  Pr1  1  0.666667  0.333333  0.571413  1
  Pr  Pr2  1  0.666667  0.333333  0.934989  1
  Pr  Pr3  1  0.333333  0.666667  0.065011  1
  Al  Al4  1  0.000000  0.000000  0.500000  1
  Os  Os5  1  0.000000  0.000000  0.000000  1
  Os  Os6  1  0.829174  0.170826  0.250319  1
  Os  Os7  1  0.829174  0.658349  0.250319  1
  Os  Os8  1  0.341651  0.170826  0.250319  1
  Os  Os9  1  0.170826  0.829174  0.749681  1
  Os  Os10  1  0.170826  0.341651  0.749681  1
  Os  Os11  1  0.658349  0.829174  0.749681  1
