# generated using pymatgen
data_Er3ThAlRu
_symmetry_space_group_name_H-M   'P 1'
_cell_length_a   9.52684047
_cell_length_b   9.52684116
_cell_length_c   9.52684200
_cell_angle_alpha   60.00000404
_cell_angle_beta   60.00000163
_cell_angle_gamma   60.00000951
_symmetry_Int_Tables_number   1
_chemical_formula_structural   Er3ThAlRu
_chemical_formula_sum   'Er12 Th4 Al4 Ru4'
_cell_volume   611.40900645
_cell_formula_units_Z   4
loop_
 _symmetry_equiv_pos_site_id
 _symmetry_equiv_pos_as_xyz
  1  'x, y, z'
loop_
 _atom_site_type_symbol
 _atom_site_label
 _atom_site_symmetry_multiplicity
 _atom_site_fract_x
 _atom_site_fract_y
 _atom_site_fract_z
 _atom_site_occupancy
  Er  Er0  1  0.059478  0.440522  0.440522  1
  Er  Er1  1  0.440522  0.059478  0.059478  1
  Er  Er2  1  0.440522  0.059478  0.440522  1
  Er  Er3  1  0.059478  0.440522  0.059478  1
  Er  Er4  1  0.440522  0.440522  0.059478  1
  Er  Er5  1  0.059478  0.059478  0.440522  1
  Er  Er6  1  0.185949  0.814051  0.814051  1
  Er  Er7  1  0.814051  0.185949  0.185949  1
  Er  Er8  1  0.814051  0.185949  0.814051  1
  Er  Er9  1  0.185949  0.814051  0.185949  1
  Er  Er10  1  0.814051  0.814051  0.185949  1
  Er  Er11  1  0.185949  0.185949  0.814051  1
  Th  Th12  1  0.600800  0.600800  0.600800  1
  Th  Th13  1  0.600800  0.600800  0.197601  1
  Th  Th14  1  0.600800  0.197601  0.600800  1
  Th  Th15  1  0.197601  0.600800  0.600800  1
  Al  Al16  1  0.829116  0.829116  0.829116  1
  Al  Al17  1  0.829116  0.829116  0.512651  1
  Al  Al18  1  0.829116  0.512651  0.829116  1
  Al  Al19  1  0.512651  0.829116  0.829116  1
  Ru  Ru20  1  0.393126  0.393126  0.393126  1
  Ru  Ru21  1  0.393126  0.393126  0.820622  1
  Ru  Ru22  1  0.393126  0.820622  0.393126  1
  Ru  Ru23  1  0.820622  0.393126  0.393126  1
