# generated using pymatgen
data_Y5(AlBi)2
_symmetry_space_group_name_H-M   'P 1'
_cell_length_a   8.85386756
_cell_length_b   8.85386772
_cell_length_c   8.07555900
_cell_angle_alpha   90.00000000
_cell_angle_beta   90.00000000
_cell_angle_gamma   125.66623741
_symmetry_Int_Tables_number   1
_chemical_formula_structural   Y5(AlBi)2
_chemical_formula_sum   'Y10 Al4 Bi4'
_cell_volume   514.30781719
_cell_formula_units_Z   2
loop_
 _symmetry_equiv_pos_site_id
 _symmetry_equiv_pos_as_xyz
  1  'x, y, z'
loop_
 _atom_site_type_symbol
 _atom_site_label
 _atom_site_symmetry_multiplicity
 _atom_site_fract_x
 _atom_site_fract_y
 _atom_site_fract_z
 _atom_site_occupancy
  Y  Y0  1  0.040695  0.299166  0.331586  1
  Y  Y1  1  0.959305  0.700834  0.668414  1
  Y  Y2  1  0.459305  0.200834  0.831586  1
  Y  Y3  1  0.799166  0.540695  0.168414  1
  Y  Y4  1  0.540695  0.799166  0.168414  1
  Y  Y5  1  0.200834  0.459305  0.831586  1
  Y  Y6  1  0.700834  0.959305  0.668414  1
  Y  Y7  1  0.299166  0.040695  0.331586  1
  Y  Y8  1  0.000000  0.000000  0.000000  1
  Y  Y9  1  0.500000  0.500000  0.500000  1
  Al  Al10  1  0.378149  0.378149  0.121549  1
  Al  Al11  1  0.621851  0.621851  0.878451  1
  Al  Al12  1  0.121851  0.121851  0.621549  1
  Al  Al13  1  0.878149  0.878149  0.378451  1
  Bi  Bi14  1  0.793435  0.206565  0.000000  1
  Bi  Bi15  1  0.206565  0.793435  0.000000  1
  Bi  Bi16  1  0.706565  0.293435  0.500000  1
  Bi  Bi17  1  0.293435  0.706565  0.500000  1
