# generated using pymatgen
data_Yb2Ce2Mg3AlIr4
_symmetry_space_group_name_H-M   'P 1'
_cell_length_a   7.16837401
_cell_length_b   4.08395100
_cell_length_c   8.48216761
_cell_angle_alpha   90.00000000
_cell_angle_beta   90.37854589
_cell_angle_gamma   90.00000000
_symmetry_Int_Tables_number   1
_chemical_formula_structural   Yb2Ce2Mg3AlIr4
_chemical_formula_sum   'Yb2 Ce2 Mg3 Al1 Ir4'
_cell_volume   248.31248167
_cell_formula_units_Z   1
loop_
 _symmetry_equiv_pos_site_id
 _symmetry_equiv_pos_as_xyz
  1  'x, y, z'
loop_
 _atom_site_type_symbol
 _atom_site_label
 _atom_site_symmetry_multiplicity
 _atom_site_fract_x
 _atom_site_fract_y
 _atom_site_fract_z
 _atom_site_occupancy
  Yb  Yb0  1  0.960779  0.250000  0.171729  1
  Yb  Yb1  1  0.035362  0.750000  0.828906  1
  Ce  Ce2  1  0.469667  0.250000  0.313658  1
  Ce  Ce3  1  0.533211  0.750000  0.684010  1
  Mg  Mg4  1  0.866707  0.250000  0.563426  1
  Mg  Mg5  1  0.358026  0.250000  0.942338  1
  Mg  Mg6  1  0.129298  0.750000  0.436729  1
  Al  Al7  1  0.636783  0.750000  0.055901  1
  Ir  Ir8  1  0.726608  0.250000  0.877428  1
  Ir  Ir9  1  0.262533  0.250000  0.623487  1
  Ir  Ir10  1  0.280059  0.750000  0.137737  1
  Ir  Ir11  1  0.740968  0.750000  0.364650  1
