# generated using pymatgen
data_Tb3AlIn2CuAu2
_symmetry_space_group_name_H-M   'P 1'
_cell_length_a   7.68102344
_cell_length_b   7.68102286
_cell_length_c   3.89853400
_cell_angle_alpha   90.00000000
_cell_angle_beta   90.00000000
_cell_angle_gamma   120.39781779
_symmetry_Int_Tables_number   1
_chemical_formula_structural   Tb3AlIn2CuAu2
_chemical_formula_sum   'Tb3 Al1 In2 Cu1 Au2'
_cell_volume   198.38789319
_cell_formula_units_Z   1
loop_
 _symmetry_equiv_pos_site_id
 _symmetry_equiv_pos_as_xyz
  1  'x, y, z'
loop_
 _atom_site_type_symbol
 _atom_site_label
 _atom_site_symmetry_multiplicity
 _atom_site_fract_x
 _atom_site_fract_y
 _atom_site_fract_z
 _atom_site_occupancy
  Tb  Tb0  1  0.596420  0.000737  0.500000  1
  Tb  Tb1  1  0.411973  0.411973  0.500000  1
  Tb  Tb2  1  0.000737  0.596420  0.500000  1
  Al  Al3  1  0.756900  0.756900  0.000000  1
  In  In4  1  0.998393  0.241534  0.000000  1
  In  In5  1  0.241534  0.998393  0.000000  1
  Cu  Cu6  1  0.976699  0.976699  0.500000  1
  Au  Au7  1  0.346991  0.670353  0.000000  1
  Au  Au8  1  0.670353  0.346991  0.000000  1
