# generated using pymatgen
data_Hf9AlRe3Au
_symmetry_space_group_name_H-M   'P 1'
_cell_length_a   8.78560400
_cell_length_b   8.78560428
_cell_length_c   8.41511900
_cell_angle_alpha   90.00000000
_cell_angle_beta   90.00000000
_cell_angle_gamma   120.00000647
_symmetry_Int_Tables_number   1
_chemical_formula_structural   Hf9AlRe3Au
_chemical_formula_sum   'Hf18 Al2 Re6 Au2'
_cell_volume   562.51502528
_cell_formula_units_Z   2
loop_
 _symmetry_equiv_pos_site_id
 _symmetry_equiv_pos_as_xyz
  1  'x, y, z'
loop_
 _atom_site_type_symbol
 _atom_site_label
 _atom_site_symmetry_multiplicity
 _atom_site_fract_x
 _atom_site_fract_y
 _atom_site_fract_z
 _atom_site_occupancy
  Hf  Hf0  1  0.190810  0.809190  0.445908  1
  Hf  Hf1  1  0.190810  0.381620  0.445908  1
  Hf  Hf2  1  0.618380  0.809190  0.445908  1
  Hf  Hf3  1  0.809190  0.190810  0.554092  1
  Hf  Hf4  1  0.809190  0.618380  0.554092  1
  Hf  Hf5  1  0.381620  0.190810  0.554092  1
  Hf  Hf6  1  0.809190  0.190810  0.945908  1
  Hf  Hf7  1  0.809190  0.618380  0.945908  1
  Hf  Hf8  1  0.381620  0.190810  0.945908  1
  Hf  Hf9  1  0.190810  0.809190  0.054092  1
  Hf  Hf10  1  0.190810  0.381620  0.054092  1
  Hf  Hf11  1  0.618380  0.809190  0.054092  1
  Hf  Hf12  1  0.544351  0.455649  0.250000  1
  Hf  Hf13  1  0.544351  0.088700  0.250000  1
  Hf  Hf14  1  0.911300  0.455649  0.250000  1
  Hf  Hf15  1  0.455649  0.544351  0.750000  1
  Hf  Hf16  1  0.455649  0.911300  0.750000  1
  Hf  Hf17  1  0.088700  0.544351  0.750000  1
  Al  Al18  1  0.000000  0.000000  0.500000  1
  Al  Al19  1  0.000000  0.000000  0.000000  1
  Re  Re20  1  0.886384  0.113616  0.250000  1
  Re  Re21  1  0.886384  0.772767  0.250000  1
  Re  Re22  1  0.227233  0.113616  0.250000  1
  Re  Re23  1  0.113616  0.886384  0.750000  1
  Re  Re24  1  0.113616  0.227233  0.750000  1
  Re  Re25  1  0.772767  0.886384  0.750000  1
  Au  Au26  1  0.333333  0.666667  0.250000  1
  Au  Au27  1  0.666667  0.333333  0.750000  1
