# generated using pymatgen
data_Hf10AlSn6Au
_symmetry_space_group_name_H-M   'P 1'
_cell_length_a   8.67796400
_cell_length_b   8.67796463
_cell_length_c   5.86655200
_cell_angle_alpha   90.00000000
_cell_angle_beta   90.00000000
_cell_angle_gamma   119.99999761
_symmetry_Int_Tables_number   1
_chemical_formula_structural   Hf10AlSn6Au
_chemical_formula_sum   'Hf10 Al1 Sn6 Au1'
_cell_volume   382.60380634
_cell_formula_units_Z   1
loop_
 _symmetry_equiv_pos_site_id
 _symmetry_equiv_pos_as_xyz
  1  'x, y, z'
loop_
 _atom_site_type_symbol
 _atom_site_label
 _atom_site_symmetry_multiplicity
 _atom_site_fract_x
 _atom_site_fract_y
 _atom_site_fract_z
 _atom_site_occupancy
  Hf  Hf0  1  0.333333  0.666667  0.000000  1
  Hf  Hf1  1  0.666667  0.333333  0.500000  1
  Hf  Hf2  1  0.666667  0.333333  0.000000  1
  Hf  Hf3  1  0.333333  0.666667  0.500000  1
  Hf  Hf4  1  0.273592  0.000000  0.245016  1
  Hf  Hf5  1  0.273592  0.273592  0.754984  1
  Hf  Hf6  1  0.000000  0.726408  0.754984  1
  Hf  Hf7  1  0.000000  0.273592  0.245016  1
  Hf  Hf8  1  0.726408  0.726408  0.245016  1
  Hf  Hf9  1  0.726408  0.000000  0.754984  1
  Al  Al10  1  0.000000  0.000000  0.000000  1
  Sn  Sn11  1  0.614740  0.000000  0.250237  1
  Sn  Sn12  1  0.614740  0.614740  0.749763  1
  Sn  Sn13  1  0.000000  0.385260  0.749763  1
  Sn  Sn14  1  0.000000  0.614740  0.250237  1
  Sn  Sn15  1  0.385260  0.385260  0.250237  1
  Sn  Sn16  1  0.385260  0.000000  0.749763  1
  Au  Au17  1  0.000000  0.000000  0.500000  1
