# generated using pymatgen
data_La3PrAlGaSi2
_symmetry_space_group_name_H-M   'P 1'
_cell_length_a   4.12733600
_cell_length_b   4.53647500
_cell_length_c   11.52202900
_cell_angle_alpha   90.00000000
_cell_angle_beta   90.00000000
_cell_angle_gamma   90.00000000
_symmetry_Int_Tables_number   1
_chemical_formula_structural   La3PrAlGaSi2
_chemical_formula_sum   'La3 Pr1 Al1 Ga1 Si2'
_cell_volume   215.73336190
_cell_formula_units_Z   1
loop_
 _symmetry_equiv_pos_site_id
 _symmetry_equiv_pos_as_xyz
  1  'x, y, z'
loop_
 _atom_site_type_symbol
 _atom_site_label
 _atom_site_symmetry_multiplicity
 _atom_site_fract_x
 _atom_site_fract_y
 _atom_site_fract_z
 _atom_site_occupancy
  La  La0  1  0.000000  0.500000  0.857063  1
  La  La1  1  0.500000  0.500000  0.139579  1
  La  La2  1  0.500000  0.000000  0.644805  1
  Pr  Pr3  1  0.000000  0.000000  0.357893  1
  Al  Al4  1  0.500000  0.500000  0.435700  1
  Ga  Ga5  1  0.000000  0.000000  0.065186  1
  Si  Si6  1  0.000000  0.500000  0.569928  1
  Si  Si7  1  0.500000  0.000000  0.929843  1
