# generated using pymatgen
data_Dy4AlRu7
_symmetry_space_group_name_H-M   'P 1'
_cell_length_a   5.38500995
_cell_length_b   5.38501033
_cell_length_c   8.59400402
_cell_angle_alpha   90.00760677
_cell_angle_beta   89.99239503
_cell_angle_gamma   119.98627764
_symmetry_Int_Tables_number   1
_chemical_formula_structural   Dy4AlRu7
_chemical_formula_sum   'Dy4 Al1 Ru7'
_cell_volume   215.85358480
_cell_formula_units_Z   1
loop_
 _symmetry_equiv_pos_site_id
 _symmetry_equiv_pos_as_xyz
  1  'x, y, z'
loop_
 _atom_site_type_symbol
 _atom_site_label
 _atom_site_symmetry_multiplicity
 _atom_site_fract_x
 _atom_site_fract_y
 _atom_site_fract_z
 _atom_site_occupancy
  Dy  Dy0  1  0.666674  0.333326  0.569764  1
  Dy  Dy1  1  0.333326  0.666674  0.430236  1
  Dy  Dy2  1  0.333283  0.666717  0.065165  1
  Dy  Dy3  1  0.666717  0.333283  0.934835  1
  Al  Al4  1  0.000000  0.000000  0.500000  1
  Ru  Ru5  1  0.000000  0.000000  0.000000  1
  Ru  Ru6  1  0.171339  0.342446  0.748665  1
  Ru  Ru7  1  0.171135  0.828865  0.748628  1
  Ru  Ru8  1  0.657554  0.828661  0.748665  1
  Ru  Ru9  1  0.828661  0.657554  0.251335  1
  Ru  Ru10  1  0.828865  0.171135  0.251372  1
  Ru  Ru11  1  0.342446  0.171339  0.251335  1
