# generated using pymatgen
data_Ho4AlRu6W
_symmetry_space_group_name_H-M   'P 1'
_cell_length_a   5.56436101
_cell_length_b   5.18305255
_cell_length_c   8.97768300
_cell_angle_alpha   90.00000000
_cell_angle_beta   90.00000000
_cell_angle_gamma   122.41138433
_symmetry_Int_Tables_number   1
_chemical_formula_structural   Ho4AlRu6W
_chemical_formula_sum   'Ho4 Al1 Ru6 W1'
_cell_volume   218.58560418
_cell_formula_units_Z   1
loop_
 _symmetry_equiv_pos_site_id
 _symmetry_equiv_pos_as_xyz
  1  'x, y, z'
loop_
 _atom_site_type_symbol
 _atom_site_label
 _atom_site_symmetry_multiplicity
 _atom_site_fract_x
 _atom_site_fract_y
 _atom_site_fract_z
 _atom_site_occupancy
  Ho  Ho0  1  0.674870  0.349611  0.565694  1
  Ho  Ho1  1  0.331165  0.662466  0.433356  1
  Ho  Ho2  1  0.331165  0.662466  0.066644  1
  Ho  Ho3  1  0.674870  0.349611  0.934306  1
  Al  Al4  1  0.835550  0.670803  0.250000  1
  Ru  Ru5  1  0.010841  0.021009  0.497602  1
  Ru  Ru6  1  0.010841  0.021009  0.002398  1
  Ru  Ru7  1  0.173751  0.815533  0.750000  1
  Ru  Ru8  1  0.640977  0.815494  0.750000  1
  Ru  Ru9  1  0.816999  0.163496  0.250000  1
  Ru  Ru10  1  0.346503  0.163301  0.250000  1
  W  W11  1  0.152467  0.305200  0.750000  1
