# generated using pymatgen
data_Ho10AlSnSb4
_symmetry_space_group_name_H-M   'P 1'
_cell_length_a   8.86987323
_cell_length_b   8.88500969
_cell_length_c   6.38543800
_cell_angle_alpha   90.00000000
_cell_angle_beta   90.00000000
_cell_angle_gamma   119.83162606
_symmetry_Int_Tables_number   1
_chemical_formula_structural   Ho10AlSnSb4
_chemical_formula_sum   'Ho10 Al1 Sn1 Sb4'
_cell_volume   436.54698207
_cell_formula_units_Z   1
loop_
 _symmetry_equiv_pos_site_id
 _symmetry_equiv_pos_as_xyz
  1  'x, y, z'
loop_
 _atom_site_type_symbol
 _atom_site_label
 _atom_site_symmetry_multiplicity
 _atom_site_fract_x
 _atom_site_fract_y
 _atom_site_fract_z
 _atom_site_occupancy
  Ho  Ho0  1  0.333310  0.673458  0.999254  1
  Ho  Ho1  1  0.662722  0.326669  0.500765  1
  Ho  Ho2  1  0.662722  0.326669  0.999235  1
  Ho  Ho3  1  0.333310  0.673458  0.500746  1
  Ho  Ho4  1  0.756047  0.001775  0.750000  1
  Ho  Ho5  1  0.755564  0.755871  0.250000  1
  Ho  Ho6  1  0.998567  0.242071  0.250000  1
  Ho  Ho7  1  0.010000  0.764136  0.750000  1
  Ho  Ho8  1  0.245181  0.236943  0.750000  1
  Ho  Ho9  1  0.239959  0.998590  0.250000  1
  Al  Al10  1  0.396007  0.999429  0.750000  1
  Sn  Sn11  1  0.001596  0.392212  0.750000  1
  Sb  Sb12  1  0.388711  0.391211  0.250000  1
  Sb  Sb13  1  0.996836  0.607066  0.250000  1
  Sb  Sb14  1  0.612718  0.610942  0.750000  1
  Sb  Sb15  1  0.606748  0.999499  0.250000  1
