# generated using pymatgen
data_Th3MgAl2Cu3
_symmetry_space_group_name_H-M   'P 1'
_cell_length_a   7.09776828
_cell_length_b   7.09776924
_cell_length_c   4.31629200
_cell_angle_alpha   90.00000000
_cell_angle_beta   90.00000000
_cell_angle_gamma   119.13995957
_symmetry_Int_Tables_number   1
_chemical_formula_structural   Th3MgAl2Cu3
_chemical_formula_sum   'Th3 Mg1 Al2 Cu3'
_cell_volume   189.92582467
_cell_formula_units_Z   1
loop_
 _symmetry_equiv_pos_site_id
 _symmetry_equiv_pos_as_xyz
  1  'x, y, z'
loop_
 _atom_site_type_symbol
 _atom_site_label
 _atom_site_symmetry_multiplicity
 _atom_site_fract_x
 _atom_site_fract_y
 _atom_site_fract_z
 _atom_site_occupancy
  Th  Th0  1  0.415617  0.415617  0.500000  1
  Th  Th1  1  0.575869  0.002126  0.500000  1
  Th  Th2  1  0.002126  0.575869  0.500000  1
  Mg  Mg3  1  0.765254  0.765254  0.000000  1
  Al  Al4  1  0.236438  0.003851  0.000000  1
  Al  Al5  1  0.003851  0.236438  0.000000  1
  Cu  Cu6  1  0.665014  0.325646  0.000000  1
  Cu  Cu7  1  0.325646  0.665014  0.000000  1
  Cu  Cu8  1  0.010185  0.010185  0.500000  1
