# generated using pymatgen
data_Ce3Al3TcAu2
_symmetry_space_group_name_H-M   'P 1'
_cell_length_a   7.25084800
_cell_length_b   7.25084788
_cell_length_c   4.18633300
_cell_angle_alpha   90.00000000
_cell_angle_beta   90.00000000
_cell_angle_gamma   119.99999145
_symmetry_Int_Tables_number   1
_chemical_formula_structural   Ce3Al3TcAu2
_chemical_formula_sum   'Ce3 Al3 Tc1 Au2'
_cell_volume   190.60839961
_cell_formula_units_Z   1
loop_
 _symmetry_equiv_pos_site_id
 _symmetry_equiv_pos_as_xyz
  1  'x, y, z'
loop_
 _atom_site_type_symbol
 _atom_site_label
 _atom_site_symmetry_multiplicity
 _atom_site_fract_x
 _atom_site_fract_y
 _atom_site_fract_z
 _atom_site_occupancy
  Ce  Ce0  1  0.020356  0.582980  0.500000  1
  Ce  Ce1  1  0.417020  0.437375  0.500000  1
  Ce  Ce2  1  0.562625  0.979644  0.500000  1
  Al  Al3  1  0.006672  0.242242  0.000000  1
  Al  Al4  1  0.757758  0.764429  0.000000  1
  Al  Al5  1  0.235571  0.993328  0.000000  1
  Tc  Tc6  1  0.333333  0.666667  0.000000  1
  Au  Au7  1  0.000000  0.000000  0.500000  1
  Au  Au8  1  0.666667  0.333333  0.000000  1
