# generated using pymatgen
data_Gd3Sc3AlSb2
_symmetry_space_group_name_H-M   'P 1'
_cell_length_a   7.85022700
_cell_length_b   7.85022638
_cell_length_c   4.41036200
_cell_angle_alpha   90.00000000
_cell_angle_beta   90.00000000
_cell_angle_gamma   120.00000684
_symmetry_Int_Tables_number   1
_chemical_formula_structural   Gd3Sc3AlSb2
_chemical_formula_sum   'Gd3 Sc3 Al1 Sb2'
_cell_volume   235.37982477
_cell_formula_units_Z   1
loop_
 _symmetry_equiv_pos_site_id
 _symmetry_equiv_pos_as_xyz
  1  'x, y, z'
loop_
 _atom_site_type_symbol
 _atom_site_label
 _atom_site_symmetry_multiplicity
 _atom_site_fract_x
 _atom_site_fract_y
 _atom_site_fract_z
 _atom_site_occupancy
  Gd  Gd0  1  0.592481  0.000000  0.500000  1
  Gd  Gd1  1  0.407519  0.407519  0.500000  1
  Gd  Gd2  1  0.000000  0.592481  0.500000  1
  Sc  Sc3  1  0.236559  0.000000  0.000000  1
  Sc  Sc4  1  0.763441  0.763441  0.000000  1
  Sc  Sc5  1  0.000000  0.236559  0.000000  1
  Al  Al6  1  0.000000  0.000000  0.500000  1
  Sb  Sb7  1  0.333333  0.666667  0.000000  1
  Sb  Sb8  1  0.666667  0.333333  0.000000  1
