# generated using pymatgen
data_Ta3AlS6
_symmetry_space_group_name_H-M   'P 1'
_cell_length_a   5.78510200
_cell_length_b   5.78510174
_cell_length_c   12.14708700
_cell_angle_alpha   90.00000000
_cell_angle_beta   90.00000000
_cell_angle_gamma   120.00000146
_symmetry_Int_Tables_number   1
_chemical_formula_structural   Ta3AlS6
_chemical_formula_sum   'Ta6 Al2 S12'
_cell_volume   352.06657011
_cell_formula_units_Z   2
loop_
 _symmetry_equiv_pos_site_id
 _symmetry_equiv_pos_as_xyz
  1  'x, y, z'
loop_
 _atom_site_type_symbol
 _atom_site_label
 _atom_site_symmetry_multiplicity
 _atom_site_fract_x
 _atom_site_fract_y
 _atom_site_fract_z
 _atom_site_occupancy
  Ta  Ta0  1  0.000000  0.000000  0.500000  1
  Ta  Ta1  1  0.000000  0.000000  0.000000  1
  Ta  Ta2  1  0.333333  0.666667  0.997837  1
  Ta  Ta3  1  0.666667  0.333333  0.002163  1
  Ta  Ta4  1  0.666667  0.333333  0.497837  1
  Ta  Ta5  1  0.333333  0.666667  0.502163  1
  Al  Al6  1  0.333333  0.666667  0.250000  1
  Al  Al7  1  0.666667  0.333333  0.750000  1
  S  S8  1  0.332141  0.330947  0.369312  1
  S  S9  1  0.669053  0.001195  0.369312  1
  S  S10  1  0.998805  0.667859  0.369312  1
  S  S11  1  0.330947  0.332141  0.630688  1
  S  S12  1  0.001195  0.669053  0.630688  1
  S  S13  1  0.667859  0.998805  0.630688  1
  S  S14  1  0.667859  0.669053  0.869312  1
  S  S15  1  0.330947  0.998805  0.869312  1
  S  S16  1  0.001195  0.332141  0.869312  1
  S  S17  1  0.669053  0.667859  0.130688  1
  S  S18  1  0.998805  0.330947  0.130688  1
  S  S19  1  0.332141  0.001195  0.130688  1
