# generated using pymatgen
data_CeTh2Al2ZnPd3
_symmetry_space_group_name_H-M   'P 1'
_cell_length_a   7.29742200
_cell_length_b   7.23119639
_cell_length_c   4.20582500
_cell_angle_alpha   90.00000000
_cell_angle_beta   90.00000000
_cell_angle_gamma   120.30342007
_symmetry_Int_Tables_number   1
_chemical_formula_structural   CeTh2Al2ZnPd3
_chemical_formula_sum   'Ce1 Th2 Al2 Zn1 Pd3'
_cell_volume   191.61322164
_cell_formula_units_Z   1
loop_
 _symmetry_equiv_pos_site_id
 _symmetry_equiv_pos_as_xyz
  1  'x, y, z'
loop_
 _atom_site_type_symbol
 _atom_site_label
 _atom_site_symmetry_multiplicity
 _atom_site_fract_x
 _atom_site_fract_y
 _atom_site_fract_z
 _atom_site_occupancy
  Ce  Ce0  1  0.422972  0.000000  0.000000  1
  Th  Th1  1  0.995273  0.412749  0.000000  1
  Th  Th2  1  0.582522  0.587251  0.000000  1
  Al  Al3  1  0.006679  0.773174  0.500000  1
  Al  Al4  1  0.233505  0.226826  0.500000  1
  Zn  Zn5  1  0.758516  0.000000  0.500000  1
  Pd  Pd6  1  0.010299  0.000000  0.000000  1
  Pd  Pd7  1  0.667526  0.344820  0.500000  1
  Pd  Pd8  1  0.322705  0.655180  0.500000  1
