# generated using pymatgen
data_Mn5AlPd9Pt
_symmetry_space_group_name_H-M   'P 1'
_cell_length_a   4.13369300
_cell_length_b   5.46077257
_cell_length_c   10.69249138
_cell_angle_alpha   89.88030932
_cell_angle_beta   90.00000000
_cell_angle_gamma   90.00000000
_symmetry_Int_Tables_number   1
_chemical_formula_structural   Mn5AlPd9Pt
_chemical_formula_sum   'Mn5 Al1 Pd9 Pt1'
_cell_volume   241.36276379
_cell_formula_units_Z   1
loop_
 _symmetry_equiv_pos_site_id
 _symmetry_equiv_pos_as_xyz
  1  'x, y, z'
loop_
 _atom_site_type_symbol
 _atom_site_label
 _atom_site_symmetry_multiplicity
 _atom_site_fract_x
 _atom_site_fract_y
 _atom_site_fract_z
 _atom_site_occupancy
  Mn  Mn0  1  0.000000  0.000268  0.000088  1
  Mn  Mn1  1  0.500000  0.175428  0.362270  1
  Mn  Mn2  1  0.500000  0.824514  0.637723  1
  Mn  Mn3  1  0.500000  0.680241  0.136800  1
  Mn  Mn4  1  0.500000  0.319827  0.863357  1
  Al  Al5  1  0.000000  0.500053  0.499939  1
  Pd  Pd6  1  0.500000  0.809446  0.887072  1
  Pd  Pd7  1  0.500000  0.683105  0.392615  1
  Pd  Pd8  1  0.500000  0.316810  0.607640  1
  Pd  Pd9  1  0.000000  0.999848  0.500129  1
  Pd  Pd10  1  0.000000  0.499967  0.999979  1
  Pd  Pd11  1  0.000000  0.916029  0.243231  1
  Pd  Pd12  1  0.000000  0.084264  0.756842  1
  Pd  Pd13  1  0.000000  0.417536  0.261385  1
  Pd  Pd14  1  0.000000  0.582836  0.738814  1
  Pt  Pt15  1  0.500000  0.189829  0.112116  1
