# generated using pymatgen
data_Hf3Al3NiIrPt
_symmetry_space_group_name_H-M   'P 1'
_cell_length_a   7.19761800
_cell_length_b   7.19761697
_cell_length_c   3.40296600
_cell_angle_alpha   90.00000000
_cell_angle_beta   90.00000000
_cell_angle_gamma   119.99998635
_symmetry_Int_Tables_number   1
_chemical_formula_structural   Hf3Al3NiIrPt
_chemical_formula_sum   'Hf3 Al3 Ni1 Ir1 Pt1'
_cell_volume   152.67426094
_cell_formula_units_Z   1
loop_
 _symmetry_equiv_pos_site_id
 _symmetry_equiv_pos_as_xyz
  1  'x, y, z'
loop_
 _atom_site_type_symbol
 _atom_site_label
 _atom_site_symmetry_multiplicity
 _atom_site_fract_x
 _atom_site_fract_y
 _atom_site_fract_z
 _atom_site_occupancy
  Hf  Hf0  1  0.393598  0.399931  0.500000  1
  Hf  Hf1  1  0.600069  0.993667  0.500000  1
  Hf  Hf2  1  0.006333  0.606402  0.500000  1
  Al  Al3  1  0.749129  0.748066  0.000000  1
  Al  Al4  1  0.251934  0.001063  0.000000  1
  Al  Al5  1  0.998937  0.250871  0.000000  1
  Ni  Ni6  1  0.000000  0.000000  0.500000  1
  Ir  Ir7  1  0.333333  0.666667  0.000000  1
  Pt  Pt8  1  0.666667  0.333333  0.000000  1
