# generated using pymatgen
data_Pr2AlRuI
_symmetry_space_group_name_H-M   'P 1'
_cell_length_a   4.35407800
_cell_length_b   4.35407873
_cell_length_c   17.65607200
_cell_angle_alpha   90.00000000
_cell_angle_beta   90.00000000
_cell_angle_gamma   119.99999446
_symmetry_Int_Tables_number   1
_chemical_formula_structural   Pr2AlRuI
_chemical_formula_sum   'Pr4 Al2 Ru2 I2'
_cell_volume   289.87931708
_cell_formula_units_Z   2
loop_
 _symmetry_equiv_pos_site_id
 _symmetry_equiv_pos_as_xyz
  1  'x, y, z'
loop_
 _atom_site_type_symbol
 _atom_site_label
 _atom_site_symmetry_multiplicity
 _atom_site_fract_x
 _atom_site_fract_y
 _atom_site_fract_z
 _atom_site_occupancy
  Pr  Pr0  1  0.000000  0.000000  0.606220  1
  Pr  Pr1  1  0.000000  0.000000  0.393884  1
  Pr  Pr2  1  0.000000  0.000000  0.106220  1
  Pr  Pr3  1  0.000000  0.000000  0.893884  1
  Al  Al4  1  0.666667  0.333333  0.500286  1
  Al  Al5  1  0.333333  0.666667  0.000286  1
  Ru  Ru6  1  0.666667  0.333333  0.000058  1
  Ru  Ru7  1  0.333333  0.666667  0.500058  1
  I  I8  1  0.666667  0.333333  0.249551  1
  I  I9  1  0.333333  0.666667  0.749551  1
