# generated using pymatgen
data_Y2ThMg2AlIr3
_symmetry_space_group_name_H-M   'P 1'
_cell_length_a   7.30806922
_cell_length_b   7.30806963
_cell_length_c   4.03458900
_cell_angle_alpha   90.00000000
_cell_angle_beta   90.00000000
_cell_angle_gamma   119.11201747
_symmetry_Int_Tables_number   1
_chemical_formula_structural   Y2ThMg2AlIr3
_chemical_formula_sum   'Y2 Th1 Mg2 Al1 Ir3'
_cell_volume   188.25744062
_cell_formula_units_Z   1
loop_
 _symmetry_equiv_pos_site_id
 _symmetry_equiv_pos_as_xyz
  1  'x, y, z'
loop_
 _atom_site_type_symbol
 _atom_site_label
 _atom_site_symmetry_multiplicity
 _atom_site_fract_x
 _atom_site_fract_y
 _atom_site_fract_z
 _atom_site_occupancy
  Y  Y0  1  0.409690  0.008363  0.500000  1
  Y  Y1  1  0.008363  0.409690  0.500000  1
  Th  Th2  1  0.570954  0.570954  0.500000  1
  Mg  Mg3  1  0.756154  0.007183  0.000000  1
  Mg  Mg4  1  0.007183  0.756154  0.000000  1
  Al  Al5  1  0.231418  0.231418  0.000000  1
  Ir  Ir6  1  0.341423  0.654974  0.000000  1
  Ir  Ir7  1  0.654974  0.341423  0.000000  1
  Ir  Ir8  1  0.019841  0.019841  0.500000  1
