# generated using pymatgen
data_Dy10Al3Os
_symmetry_space_group_name_H-M   'P 1'
_cell_length_a   9.53508600
_cell_length_b   9.53508589
_cell_length_c   9.67076100
_cell_angle_alpha   90.00000000
_cell_angle_beta   90.00000000
_cell_angle_gamma   120.00000732
_symmetry_Int_Tables_number   1
_chemical_formula_structural   Dy10Al3Os
_chemical_formula_sum   'Dy20 Al6 Os2'
_cell_volume   761.44839221
_cell_formula_units_Z   2
loop_
 _symmetry_equiv_pos_site_id
 _symmetry_equiv_pos_as_xyz
  1  'x, y, z'
loop_
 _atom_site_type_symbol
 _atom_site_label
 _atom_site_symmetry_multiplicity
 _atom_site_fract_x
 _atom_site_fract_y
 _atom_site_fract_z
 _atom_site_occupancy
  Dy  Dy0  1  0.000000  0.000000  0.500000  1
  Dy  Dy1  1  0.000000  0.000000  0.000000  1
  Dy  Dy2  1  0.206963  0.793037  0.440353  1
  Dy  Dy3  1  0.206963  0.413926  0.440353  1
  Dy  Dy4  1  0.586074  0.793037  0.440353  1
  Dy  Dy5  1  0.793037  0.206963  0.559647  1
  Dy  Dy6  1  0.793037  0.586074  0.559647  1
  Dy  Dy7  1  0.413926  0.206963  0.559647  1
  Dy  Dy8  1  0.793037  0.206963  0.940353  1
  Dy  Dy9  1  0.793037  0.586074  0.940353  1
  Dy  Dy10  1  0.413926  0.206963  0.940353  1
  Dy  Dy11  1  0.206963  0.793037  0.059647  1
  Dy  Dy12  1  0.206963  0.413926  0.059647  1
  Dy  Dy13  1  0.586074  0.793037  0.059647  1
  Dy  Dy14  1  0.538873  0.461127  0.250000  1
  Dy  Dy15  1  0.538873  0.077744  0.250000  1
  Dy  Dy16  1  0.922256  0.461127  0.250000  1
  Dy  Dy17  1  0.461127  0.538873  0.750000  1
  Dy  Dy18  1  0.461127  0.922256  0.750000  1
  Dy  Dy19  1  0.077744  0.538873  0.750000  1
  Al  Al20  1  0.889097  0.110903  0.250000  1
  Al  Al21  1  0.889097  0.778196  0.250000  1
  Al  Al22  1  0.221804  0.110903  0.250000  1
  Al  Al23  1  0.110903  0.889097  0.750000  1
  Al  Al24  1  0.110903  0.221804  0.750000  1
  Al  Al25  1  0.778196  0.889097  0.750000  1
  Os  Os26  1  0.333333  0.666667  0.250000  1
  Os  Os27  1  0.666667  0.333333  0.750000  1
