# generated using pymatgen
data_Th3AlGe2Ir3
_symmetry_space_group_name_H-M   'P 1'
_cell_length_a   7.32451960
_cell_length_b   7.32451851
_cell_length_c   4.05057500
_cell_angle_alpha   90.00000000
_cell_angle_beta   90.00000000
_cell_angle_gamma   120.27829840
_symmetry_Int_Tables_number   1
_chemical_formula_structural   Th3AlGe2Ir3
_chemical_formula_sum   'Th3 Al1 Ge2 Ir3'
_cell_volume   187.66392361
_cell_formula_units_Z   1
loop_
 _symmetry_equiv_pos_site_id
 _symmetry_equiv_pos_as_xyz
  1  'x, y, z'
loop_
 _atom_site_type_symbol
 _atom_site_label
 _atom_site_symmetry_multiplicity
 _atom_site_fract_x
 _atom_site_fract_y
 _atom_site_fract_z
 _atom_site_occupancy
  Th  Th0  1  0.417594  0.000835  0.500000  1
  Th  Th1  1  0.000835  0.417594  0.500000  1
  Th  Th2  1  0.585796  0.585796  0.500000  1
  Al  Al3  1  0.236919  0.236919  0.000000  1
  Ge  Ge4  1  0.763940  0.006701  0.000000  1
  Ge  Ge5  1  0.006701  0.763940  0.000000  1
  Ir  Ir6  1  0.328042  0.656932  0.000000  1
  Ir  Ir7  1  0.656932  0.328042  0.000000  1
  Ir  Ir8  1  0.003241  0.003241  0.500000  1
