# generated using pymatgen
data_Tm4AlReRu6
_symmetry_space_group_name_H-M   'P 1'
_cell_length_a   5.14784732
_cell_length_b   5.36965338
_cell_length_c   8.82983000
_cell_angle_alpha   90.00000000
_cell_angle_beta   90.00000000
_cell_angle_gamma   119.51384056
_symmetry_Int_Tables_number   1
_chemical_formula_structural   Tm4AlReRu6
_chemical_formula_sum   'Tm4 Al1 Re1 Ru6'
_cell_volume   212.40349357
_cell_formula_units_Z   1
loop_
 _symmetry_equiv_pos_site_id
 _symmetry_equiv_pos_as_xyz
  1  'x, y, z'
loop_
 _atom_site_type_symbol
 _atom_site_label
 _atom_site_symmetry_multiplicity
 _atom_site_fract_x
 _atom_site_fract_y
 _atom_site_fract_z
 _atom_site_occupancy
  Tm  Tm0  1  0.334873  0.671677  0.438855  1
  Tm  Tm1  1  0.659993  0.328335  0.566318  1
  Tm  Tm2  1  0.659993  0.328335  0.933682  1
  Tm  Tm3  1  0.334873  0.671677  0.061145  1
  Al  Al4  1  0.836825  0.167099  0.250000  1
  Re  Re5  1  0.661837  0.832656  0.750000  1
  Ru  Ru6  1  0.990600  0.988970  0.498967  1
  Ru  Ru7  1  0.990600  0.988970  0.001033  1
  Ru  Ru8  1  0.826205  0.655885  0.250000  1
  Ru  Ru9  1  0.352245  0.182041  0.250000  1
  Ru  Ru10  1  0.172215  0.834897  0.750000  1
  Ru  Ru11  1  0.179742  0.349458  0.750000  1
