# generated using pymatgen
data_Hf3Ti2AlPb2
_symmetry_space_group_name_H-M   'P 1'
_cell_length_a   8.30442624
_cell_length_b   8.30442653
_cell_length_c   5.57644200
_cell_angle_alpha   90.00000000
_cell_angle_beta   90.00000000
_cell_angle_gamma   120.69572666
_symmetry_Int_Tables_number   1
_chemical_formula_structural   Hf3Ti2AlPb2
_chemical_formula_sum   'Hf6 Ti4 Al2 Pb4'
_cell_volume   330.68884269
_cell_formula_units_Z   2
loop_
 _symmetry_equiv_pos_site_id
 _symmetry_equiv_pos_as_xyz
  1  'x, y, z'
loop_
 _atom_site_type_symbol
 _atom_site_label
 _atom_site_symmetry_multiplicity
 _atom_site_fract_x
 _atom_site_fract_y
 _atom_site_fract_z
 _atom_site_occupancy
  Hf  Hf0  1  0.238083  0.016895  0.250000  1
  Hf  Hf1  1  0.761917  0.983105  0.750000  1
  Hf  Hf2  1  0.016895  0.238083  0.250000  1
  Hf  Hf3  1  0.983105  0.761917  0.750000  1
  Hf  Hf4  1  0.748770  0.748770  0.250000  1
  Hf  Hf5  1  0.251230  0.251230  0.750000  1
  Ti  Ti6  1  0.344608  0.655392  0.000000  1
  Ti  Ti7  1  0.655392  0.344608  0.000000  1
  Ti  Ti8  1  0.655392  0.344608  0.500000  1
  Ti  Ti9  1  0.344608  0.655392  0.500000  1
  Al  Al10  1  0.402430  0.402430  0.250000  1
  Al  Al11  1  0.597570  0.597570  0.750000  1
  Pb  Pb12  1  0.606059  0.008541  0.250000  1
  Pb  Pb13  1  0.393941  0.991459  0.750000  1
  Pb  Pb14  1  0.008541  0.606059  0.250000  1
  Pb  Pb15  1  0.991459  0.393941  0.750000  1
