# generated using pymatgen
data_Th3Al3TcPd2
_symmetry_space_group_name_H-M   'P 1'
_cell_length_a   7.27750900
_cell_length_b   7.27750954
_cell_length_c   4.19253100
_cell_angle_alpha   90.00000000
_cell_angle_beta   90.00000000
_cell_angle_gamma   120.00000211
_symmetry_Int_Tables_number   1
_chemical_formula_structural   Th3Al3TcPd2
_chemical_formula_sum   'Th3 Al3 Tc1 Pd2'
_cell_volume   192.29696918
_cell_formula_units_Z   1
loop_
 _symmetry_equiv_pos_site_id
 _symmetry_equiv_pos_as_xyz
  1  'x, y, z'
loop_
 _atom_site_type_symbol
 _atom_site_label
 _atom_site_symmetry_multiplicity
 _atom_site_fract_x
 _atom_site_fract_y
 _atom_site_fract_z
 _atom_site_occupancy
  Th  Th0  1  0.427111  0.416928  0.500000  1
  Th  Th1  1  0.583072  0.010183  0.500000  1
  Th  Th2  1  0.989817  0.572889  0.500000  1
  Al  Al3  1  0.767609  0.763983  0.000000  1
  Al  Al4  1  0.236017  0.003626  0.000000  1
  Al  Al5  1  0.996374  0.232391  0.000000  1
  Tc  Tc6  1  0.666667  0.333333  0.000000  1
  Pd  Pd7  1  0.333333  0.666667  0.000000  1
  Pd  Pd8  1  0.000000  0.000000  0.500000  1
