# generated using pymatgen
data_K6HoAlSb4
_symmetry_space_group_name_H-M   'P 1'
_cell_length_a   9.74310519
_cell_length_b   9.74310593
_cell_length_c   9.74310527
_cell_angle_alpha   127.94157025
_cell_angle_beta   69.81573862
_cell_angle_gamma   136.90172721
_symmetry_Int_Tables_number   1
_chemical_formula_structural   K6HoAlSb4
_chemical_formula_sum   'K6 Ho1 Al1 Sb4'
_cell_volume   489.01290772
_cell_formula_units_Z   1
loop_
 _symmetry_equiv_pos_site_id
 _symmetry_equiv_pos_as_xyz
  1  'x, y, z'
loop_
 _atom_site_type_symbol
 _atom_site_label
 _atom_site_symmetry_multiplicity
 _atom_site_fract_x
 _atom_site_fract_y
 _atom_site_fract_z
 _atom_site_occupancy
  K  K0  1  0.809212  0.181516  0.004681  1
  K  K1  1  0.690789  0.695470  0.372303  1
  K  K2  1  0.750000  0.250000  0.500000  1
  K  K3  1  0.250000  0.750000  0.499999  1
  K  K4  1  0.323166  0.318485  0.627696  1
  K  K5  1  0.176834  0.804531  0.995319  1
  Ho  Ho6  1  0.250000  0.250000  0.000000  1
  Al  Al7  1  0.750000  0.750000  0.000000  1
  Sb  Sb8  1  0.420428  0.713006  0.093543  1
  Sb  Sb9  1  0.079571  0.173115  0.292578  1
  Sb  Sb10  1  0.880536  0.786993  0.707423  1
  Sb  Sb11  1  0.619463  0.326885  0.906456  1
