# generated using pymatgen
data_Al8Os3Rh4Au
_symmetry_space_group_name_H-M   'P 1'
_cell_length_a   6.10305300
_cell_length_b   4.27608400
_cell_length_c   8.55525100
_cell_angle_alpha   90.00000000
_cell_angle_beta   90.00013269
_cell_angle_gamma   90.00000000
_symmetry_Int_Tables_number   1
_chemical_formula_structural   Al8Os3Rh4Au
_chemical_formula_sum   'Al8 Os3 Rh4 Au1'
_cell_volume   223.26781651
_cell_formula_units_Z   1
loop_
 _symmetry_equiv_pos_site_id
 _symmetry_equiv_pos_as_xyz
  1  'x, y, z'
loop_
 _atom_site_type_symbol
 _atom_site_label
 _atom_site_symmetry_multiplicity
 _atom_site_fract_x
 _atom_site_fract_y
 _atom_site_fract_z
 _atom_site_occupancy
  Al  Al0  1  0.017703  0.750000  0.124995  1
  Al  Al1  1  0.482302  0.750000  0.125001  1
  Al  Al2  1  0.008359  0.250001  0.384026  1
  Al  Al3  1  0.491634  0.250001  0.384037  1
  Al  Al4  1  0.500686  0.750000  0.624994  1
  Al  Al5  1  0.999307  0.750000  0.624999  1
  Al  Al6  1  0.491636  0.250001  0.865971  1
  Al  Al7  1  0.008363  0.250001  0.865982  1
  Os  Os8  1  0.249994  0.750000  0.374706  1
  Os  Os9  1  0.750004  0.250001  0.625000  1
  Os  Os10  1  0.250001  0.750000  0.875285  1
  Rh  Rh11  1  0.250028  0.250001  0.125011  1
  Rh  Rh12  1  0.750001  0.750000  0.368362  1
  Rh  Rh13  1  0.249989  0.250001  0.624993  1
  Rh  Rh14  1  0.750000  0.750000  0.881630  1
  Au  Au15  1  0.749992  0.250001  0.125006  1
