# generated using pymatgen
data_Th3AlSn2Ir2Rh
_symmetry_space_group_name_H-M   'P 1'
_cell_length_a   7.52626438
_cell_length_b   7.52626197
_cell_length_c   4.11834300
_cell_angle_alpha   90.00000000
_cell_angle_beta   90.00000000
_cell_angle_gamma   120.65703606
_symmetry_Int_Tables_number   1
_chemical_formula_structural   Th3AlSn2Ir2Rh
_chemical_formula_sum   'Th3 Al1 Sn2 Ir2 Rh1'
_cell_volume   200.67734956
_cell_formula_units_Z   1
loop_
 _symmetry_equiv_pos_site_id
 _symmetry_equiv_pos_as_xyz
  1  'x, y, z'
loop_
 _atom_site_type_symbol
 _atom_site_label
 _atom_site_symmetry_multiplicity
 _atom_site_fract_x
 _atom_site_fract_y
 _atom_site_fract_z
 _atom_site_occupancy
  Th  Th0  1  0.415676  0.008383  0.500000  1
  Th  Th1  1  0.008383  0.415676  0.500000  1
  Th  Th2  1  0.575197  0.575197  0.500000  1
  Al  Al3  1  0.243701  0.243701  0.000000  1
  Sn  Sn4  1  0.756537  0.002191  0.000000  1
  Sn  Sn5  1  0.002191  0.756537  0.000000  1
  Ir  Ir6  1  0.328294  0.649814  0.000000  1
  Ir  Ir7  1  0.649814  0.328294  0.000000  1
  Rh  Rh8  1  0.020209  0.020209  0.500000  1
