# generated using pymatgen
data_Al(S8F)3
_symmetry_space_group_name_H-M   'P 1'
_cell_length_a   14.88131866
_cell_length_b   14.88131978
_cell_length_c   14.88131768
_cell_angle_alpha   118.69302722
_cell_angle_beta   118.69302495
_cell_angle_gamma   118.69303390
_symmetry_Int_Tables_number   1
_chemical_formula_structural   Al(S8F)3
_chemical_formula_sum   'Al1 S24 F3'
_cell_volume   972.69952530
_cell_formula_units_Z   1
loop_
 _symmetry_equiv_pos_site_id
 _symmetry_equiv_pos_as_xyz
  1  'x, y, z'
loop_
 _atom_site_type_symbol
 _atom_site_label
 _atom_site_symmetry_multiplicity
 _atom_site_fract_x
 _atom_site_fract_y
 _atom_site_fract_z
 _atom_site_occupancy
  Al  Al0  1  0.931521  0.931521  0.931521  1
  S  S1  1  0.802404  0.522979  0.522979  1
  S  S2  1  0.522979  0.522979  0.802404  1
  S  S3  1  0.522979  0.802404  0.522979  1
  S  S4  1  0.245711  0.377040  0.633873  1
  S  S5  1  0.352490  0.953963  0.352490  1
  S  S6  1  0.352490  0.352490  0.953963  1
  S  S7  1  0.953963  0.352490  0.352490  1
  S  S8  1  0.125942  0.740305  0.256628  1
  S  S9  1  0.256628  0.125942  0.740305  1
  S  S10  1  0.740305  0.256628  0.125942  1
  S  S11  1  0.740305  0.125942  0.256628  1
  S  S12  1  0.256628  0.740305  0.125942  1
  S  S13  1  0.125942  0.256628  0.740305  1
  S  S14  1  0.348088  0.880816  0.532776  1
  S  S15  1  0.532776  0.348088  0.880816  1
  S  S16  1  0.880816  0.532776  0.348088  1
  S  S17  1  0.880816  0.348088  0.532776  1
  S  S18  1  0.532776  0.880816  0.348088  1
  S  S19  1  0.348088  0.532776  0.880816  1
  S  S20  1  0.245711  0.633873  0.377040  1
  S  S21  1  0.377040  0.245711  0.633873  1
  S  S22  1  0.633873  0.377040  0.245711  1
  S  S23  1  0.633873  0.245711  0.377040  1
  S  S24  1  0.377040  0.633873  0.245711  1
  F  F25  1  0.860448  0.971834  0.971834  1
  F  F26  1  0.971834  0.971834  0.860448  1
  F  F27  1  0.971834  0.860448  0.971834  1
