# generated using pymatgen
data_Th3AlCo3Sn2
_symmetry_space_group_name_H-M   'P 1'
_cell_length_a   7.28562912
_cell_length_b   7.28562859
_cell_length_c   4.04236800
_cell_angle_alpha   90.00000000
_cell_angle_beta   90.00000000
_cell_angle_gamma   120.51688151
_symmetry_Int_Tables_number   1
_chemical_formula_structural   Th3AlCo3Sn2
_chemical_formula_sum   'Th3 Al1 Co3 Sn2'
_cell_volume   184.84807121
_cell_formula_units_Z   1
loop_
 _symmetry_equiv_pos_site_id
 _symmetry_equiv_pos_as_xyz
  1  'x, y, z'
loop_
 _atom_site_type_symbol
 _atom_site_label
 _atom_site_symmetry_multiplicity
 _atom_site_fract_x
 _atom_site_fract_y
 _atom_site_fract_z
 _atom_site_occupancy
  Th  Th0  1  0.988150  0.582577  0.500000  1
  Th  Th1  1  0.429350  0.429350  0.500000  1
  Th  Th2  1  0.582577  0.988150  0.500000  1
  Al  Al3  1  0.762454  0.762454  0.000000  1
  Co  Co4  1  0.345965  0.668473  0.000000  1
  Co  Co5  1  0.983390  0.983390  0.500000  1
  Co  Co6  1  0.668473  0.345965  0.000000  1
  Sn  Sn7  1  0.997845  0.241796  0.000000  1
  Sn  Sn8  1  0.241796  0.997845  0.000000  1
