# generated using pymatgen
data_Nd3AlIn2Pd3
_symmetry_space_group_name_H-M   'P 1'
_cell_length_a   7.68246341
_cell_length_b   7.68246309
_cell_length_c   4.07492000
_cell_angle_alpha   90.00000000
_cell_angle_beta   90.00000000
_cell_angle_gamma   120.84609266
_symmetry_Int_Tables_number   1
_chemical_formula_structural   Nd3AlIn2Pd3
_chemical_formula_sum   'Nd3 Al1 In2 Pd3'
_cell_volume   206.48309315
_cell_formula_units_Z   1
loop_
 _symmetry_equiv_pos_site_id
 _symmetry_equiv_pos_as_xyz
  1  'x, y, z'
loop_
 _atom_site_type_symbol
 _atom_site_label
 _atom_site_symmetry_multiplicity
 _atom_site_fract_x
 _atom_site_fract_y
 _atom_site_fract_z
 _atom_site_occupancy
  Nd  Nd0  1  0.587416  0.997721  0.000000  1
  Nd  Nd1  1  0.997721  0.587416  0.000000  1
  Nd  Nd2  1  0.422796  0.422796  0.000000  1
  Al  Al3  1  0.756834  0.756834  0.500000  1
  In  In4  1  0.246536  0.001585  0.500000  1
  In  In5  1  0.001585  0.246536  0.500000  1
  Pd  Pd6  1  0.969428  0.969428  0.000000  1
  Pd  Pd7  1  0.347961  0.669724  0.500000  1
  Pd  Pd8  1  0.669724  0.347961  0.500000  1
