# generated using pymatgen
data_LiAl(CrS2)4
_symmetry_space_group_name_H-M   'P 1'
_cell_length_a   7.10143552
_cell_length_b   7.10143533
_cell_length_c   7.10143500
_cell_angle_alpha   60.00000618
_cell_angle_beta   60.00000707
_cell_angle_gamma   60.00000383
_symmetry_Int_Tables_number   1
_chemical_formula_structural   LiAl(CrS2)4
_chemical_formula_sum   'Li1 Al1 Cr4 S8'
_cell_volume   253.23484183
_cell_formula_units_Z   1
loop_
 _symmetry_equiv_pos_site_id
 _symmetry_equiv_pos_as_xyz
  1  'x, y, z'
loop_
 _atom_site_type_symbol
 _atom_site_label
 _atom_site_symmetry_multiplicity
 _atom_site_fract_x
 _atom_site_fract_y
 _atom_site_fract_z
 _atom_site_occupancy
  Li  Li0  1  0.500000  0.500000  0.500000  1
  Al  Al1  1  0.750000  0.750000  0.750000  1
  Cr  Cr2  1  0.613039  0.128987  0.128987  1
  Cr  Cr3  1  0.128987  0.128987  0.613039  1
  Cr  Cr4  1  0.128987  0.128987  0.128987  1
  Cr  Cr5  1  0.128987  0.613039  0.128987  1
  S  S6  1  0.909619  0.363460  0.363460  1
  S  S7  1  0.363460  0.363460  0.909619  1
  S  S8  1  0.363460  0.363460  0.363460  1
  S  S9  1  0.351685  0.882772  0.882772  1
  S  S10  1  0.882772  0.351685  0.882772  1
  S  S11  1  0.882772  0.882772  0.351685  1
  S  S12  1  0.363460  0.909619  0.363460  1
  S  S13  1  0.882772  0.882772  0.882772  1
