# generated using pymatgen
data_Pr4Al3PtI2
_symmetry_space_group_name_H-M   'P 1'
_cell_length_a   4.40147700
_cell_length_b   4.40147771
_cell_length_c   17.25255500
_cell_angle_alpha   90.00000000
_cell_angle_beta   90.00000000
_cell_angle_gamma   119.99998718
_symmetry_Int_Tables_number   1
_chemical_formula_structural   Pr4Al3PtI2
_chemical_formula_sum   'Pr4 Al3 Pt1 I2'
_cell_volume   289.45499714
_cell_formula_units_Z   1
loop_
 _symmetry_equiv_pos_site_id
 _symmetry_equiv_pos_as_xyz
  1  'x, y, z'
loop_
 _atom_site_type_symbol
 _atom_site_label
 _atom_site_symmetry_multiplicity
 _atom_site_fract_x
 _atom_site_fract_y
 _atom_site_fract_z
 _atom_site_occupancy
  Pr  Pr0  1  0.000000  0.000000  0.607460  1
  Pr  Pr1  1  0.000000  0.000000  0.395137  1
  Pr  Pr2  1  0.000000  0.000000  0.119525  1
  Pr  Pr3  1  0.000000  0.000000  0.879859  1
  Al  Al4  1  0.666667  0.333333  0.503503  1
  Al  Al5  1  0.333333  0.666667  0.006344  1
  Al  Al6  1  0.666667  0.333333  0.992900  1
  Pt  Pt7  1  0.333333  0.666667  0.496581  1
  I  I8  1  0.666667  0.333333  0.249214  1
  I  I9  1  0.333333  0.666667  0.749478  1
