# generated using pymatgen
data_Ta8AlCdSe16
_symmetry_space_group_name_H-M   'P 1'
_cell_length_a   7.01393600
_cell_length_b   7.01393584
_cell_length_c   13.73598800
_cell_angle_alpha   90.00000000
_cell_angle_beta   90.00000000
_cell_angle_gamma   120.00001016
_symmetry_Int_Tables_number   1
_chemical_formula_structural   Ta8AlCdSe16
_chemical_formula_sum   'Ta8 Al1 Cd1 Se16'
_cell_volume   585.21315205
_cell_formula_units_Z   1
loop_
 _symmetry_equiv_pos_site_id
 _symmetry_equiv_pos_as_xyz
  1  'x, y, z'
loop_
 _atom_site_type_symbol
 _atom_site_label
 _atom_site_symmetry_multiplicity
 _atom_site_fract_x
 _atom_site_fract_y
 _atom_site_fract_z
 _atom_site_occupancy
  Ta  Ta0  1  0.508308  0.491692  0.763507  1
  Ta  Ta1  1  0.016616  0.508308  0.236493  1
  Ta  Ta2  1  0.491692  0.983384  0.236493  1
  Ta  Ta3  1  0.508308  0.016616  0.763507  1
  Ta  Ta4  1  0.983384  0.491692  0.763507  1
  Ta  Ta5  1  0.491692  0.508308  0.236493  1
  Ta  Ta6  1  0.000000  0.000000  0.763794  1
  Ta  Ta7  1  0.000000  0.000000  0.236206  1
  Al  Al8  1  0.000000  0.000000  0.000000  1
  Cd  Cd9  1  0.000000  0.000000  0.500000  1
  Se  Se10  1  0.831133  0.168867  0.355770  1
  Se  Se11  1  0.831133  0.662265  0.355770  1
  Se  Se12  1  0.337735  0.168867  0.355770  1
  Se  Se13  1  0.661838  0.830920  0.884124  1
  Se  Se14  1  0.168867  0.337735  0.644230  1
  Se  Se15  1  0.169080  0.830920  0.884124  1
  Se  Se16  1  0.169080  0.338162  0.884124  1
  Se  Se17  1  0.830920  0.169080  0.115876  1
  Se  Se18  1  0.338162  0.169080  0.115876  1
  Se  Se19  1  0.662265  0.831133  0.644230  1
  Se  Se20  1  0.333333  0.666667  0.111118  1
  Se  Se21  1  0.666667  0.333333  0.637126  1
  Se  Se22  1  0.666667  0.333333  0.888882  1
  Se  Se23  1  0.333333  0.666667  0.362874  1
  Se  Se24  1  0.830920  0.661838  0.115876  1
  Se  Se25  1  0.168867  0.831133  0.644230  1
