# generated using pymatgen
data_Ce2ThScAl2Ir3
_symmetry_space_group_name_H-M   'P 1'
_cell_length_a   7.15584852
_cell_length_b   7.24971667
_cell_length_c   4.19519400
_cell_angle_alpha   90.00000000
_cell_angle_beta   90.00000000
_cell_angle_gamma   119.64714071
_symmetry_Int_Tables_number   1
_chemical_formula_structural   Ce2ThScAl2Ir3
_chemical_formula_sum   'Ce2 Th1 Sc1 Al2 Ir3'
_cell_volume   189.14640629
_cell_formula_units_Z   1
loop_
 _symmetry_equiv_pos_site_id
 _symmetry_equiv_pos_as_xyz
  1  'x, y, z'
loop_
 _atom_site_type_symbol
 _atom_site_label
 _atom_site_symmetry_multiplicity
 _atom_site_fract_x
 _atom_site_fract_y
 _atom_site_fract_z
 _atom_site_occupancy
  Ce  Ce0  1  0.403319  0.999363  0.500000  1
  Ce  Ce1  1  0.008650  0.432421  0.500000  1
  Th  Th2  1  0.577428  0.569994  0.500000  1
  Sc  Sc3  1  0.766271  0.004848  0.000000  1
  Al  Al4  1  0.003362  0.763242  0.000000  1
  Al  Al5  1  0.235064  0.232818  0.000000  1
  Ir  Ir6  1  0.329892  0.660664  0.000000  1
  Ir  Ir7  1  0.667820  0.340073  0.000000  1
  Ir  Ir8  1  0.008195  0.996576  0.500000  1
