# generated using pymatgen
data_Al2VPt5Rh4
_symmetry_space_group_name_H-M   'P 1'
_cell_length_a   3.85022900
_cell_length_b   3.91069200
_cell_length_c   11.63717800
_cell_angle_alpha   90.00000000
_cell_angle_beta   90.00000000
_cell_angle_gamma   90.00000000
_symmetry_Int_Tables_number   1
_chemical_formula_structural   Al2VPt5Rh4
_chemical_formula_sum   'Al2 V1 Pt5 Rh4'
_cell_volume   175.22168445
_cell_formula_units_Z   1
loop_
 _symmetry_equiv_pos_site_id
 _symmetry_equiv_pos_as_xyz
  1  'x, y, z'
loop_
 _atom_site_type_symbol
 _atom_site_label
 _atom_site_symmetry_multiplicity
 _atom_site_fract_x
 _atom_site_fract_y
 _atom_site_fract_z
 _atom_site_occupancy
  Al  Al0  1  0.000000  0.000000  0.336608  1
  Al  Al1  1  0.000000  0.000000  0.663392  1
  V  V2  1  0.000000  0.000000  0.000000  1
  Pt  Pt3  1  0.500000  0.500000  0.331712  1
  Pt  Pt4  1  0.500000  0.500000  0.668288  1
  Pt  Pt5  1  0.000000  0.500000  0.161057  1
  Pt  Pt6  1  0.000000  0.500000  0.500000  1
  Pt  Pt7  1  0.000000  0.500000  0.838943  1
  Rh  Rh8  1  0.500000  0.500000  0.000000  1
  Rh  Rh9  1  0.500000  0.000000  0.160637  1
  Rh  Rh10  1  0.500000  0.000000  0.500000  1
  Rh  Rh11  1  0.500000  0.000000  0.839363  1
