# generated using pymatgen
data_Pr2AlIrI
_symmetry_space_group_name_H-M   'P 1'
_cell_length_a   4.33332000
_cell_length_b   4.33332069
_cell_length_c   17.64674700
_cell_angle_alpha   90.00000000
_cell_angle_beta   90.00000000
_cell_angle_gamma   119.99999473
_symmetry_Int_Tables_number   1
_chemical_formula_structural   Pr2AlIrI
_chemical_formula_sum   'Pr4 Al2 Ir2 I2'
_cell_volume   286.97026967
_cell_formula_units_Z   2
loop_
 _symmetry_equiv_pos_site_id
 _symmetry_equiv_pos_as_xyz
  1  'x, y, z'
loop_
 _atom_site_type_symbol
 _atom_site_label
 _atom_site_symmetry_multiplicity
 _atom_site_fract_x
 _atom_site_fract_y
 _atom_site_fract_z
 _atom_site_occupancy
  Pr  Pr0  1  0.000000  0.000000  0.608683  1
  Pr  Pr1  1  0.000000  0.000000  0.393446  1
  Pr  Pr2  1  0.000000  0.000000  0.108683  1
  Pr  Pr3  1  0.000000  0.000000  0.893446  1
  Al  Al4  1  0.666667  0.333333  0.501734  1
  Al  Al5  1  0.333333  0.666667  0.001734  1
  Ir  Ir6  1  0.666667  0.333333  0.997082  1
  Ir  Ir7  1  0.333333  0.666667  0.497082  1
  I  I8  1  0.666667  0.333333  0.249056  1
  I  I9  1  0.333333  0.666667  0.749056  1
