# generated using pymatgen
data_Th3Al2Cu3Au
_symmetry_space_group_name_H-M   'P 1'
_cell_length_a   6.99000609
_cell_length_b   6.99000652
_cell_length_c   4.33541000
_cell_angle_alpha   90.00000000
_cell_angle_beta   90.00000000
_cell_angle_gamma   119.59028043
_symmetry_Int_Tables_number   1
_chemical_formula_structural   Th3Al2Cu3Au
_chemical_formula_sum   'Th3 Al2 Cu3 Au1'
_cell_volume   184.20194341
_cell_formula_units_Z   1
loop_
 _symmetry_equiv_pos_site_id
 _symmetry_equiv_pos_as_xyz
  1  'x, y, z'
loop_
 _atom_site_type_symbol
 _atom_site_label
 _atom_site_symmetry_multiplicity
 _atom_site_fract_x
 _atom_site_fract_y
 _atom_site_fract_z
 _atom_site_occupancy
  Th  Th0  1  0.428547  0.428547  0.500000  1
  Th  Th1  1  0.578885  0.994271  0.500000  1
  Th  Th2  1  0.994271  0.578885  0.500000  1
  Al  Al3  1  0.230784  0.001339  0.000000  1
  Al  Al4  1  0.001339  0.230784  0.000000  1
  Cu  Cu5  1  0.664626  0.315675  0.000000  1
  Cu  Cu6  1  0.315675  0.664626  0.000000  1
  Cu  Cu7  1  0.024404  0.024404  0.500000  1
  Au  Au8  1  0.761468  0.761468  0.000000  1
