# generated using pymatgen
data_Hf2AlTc2W
_symmetry_space_group_name_H-M   'P 1'
_cell_length_a   5.28231300
_cell_length_b   5.29294498
_cell_length_c   8.65270500
_cell_angle_alpha   90.00000000
_cell_angle_beta   90.00000000
_cell_angle_gamma   120.06658888
_symmetry_Int_Tables_number   1
_chemical_formula_structural   Hf2AlTc2W
_chemical_formula_sum   'Hf4 Al2 Tc4 W2'
_cell_volume   209.36893307
_cell_formula_units_Z   2
loop_
 _symmetry_equiv_pos_site_id
 _symmetry_equiv_pos_as_xyz
  1  'x, y, z'
loop_
 _atom_site_type_symbol
 _atom_site_label
 _atom_site_symmetry_multiplicity
 _atom_site_fract_x
 _atom_site_fract_y
 _atom_site_fract_z
 _atom_site_occupancy
  Hf  Hf0  1  0.333561  0.667444  0.434615  1
  Hf  Hf1  1  0.666439  0.333882  0.934615  1
  Hf  Hf2  1  0.666439  0.333882  0.565385  1
  Hf  Hf3  1  0.333561  0.667444  0.065385  1
  Al  Al4  1  0.000000  0.996674  0.000000  1
  Al  Al5  1  0.000000  0.996674  0.500000  1
  Tc  Tc6  1  0.339400  0.169325  0.250000  1
  Tc  Tc7  1  0.660600  0.829927  0.750000  1
  Tc  Tc8  1  0.829281  0.658867  0.250000  1
  Tc  Tc9  1  0.170719  0.829589  0.750000  1
  W  W10  1  0.172659  0.344478  0.750000  1
  W  W11  1  0.827341  0.171816  0.250000  1
