# generated using pymatgen
data_Ca4TaNbAl2O12
_symmetry_space_group_name_H-M   'P 1'
_cell_length_a   5.41664855
_cell_length_b   5.48367601
_cell_length_c   7.68988304
_cell_angle_alpha   90.00840254
_cell_angle_beta   89.83470023
_cell_angle_gamma   89.99942378
_symmetry_Int_Tables_number   1
_chemical_formula_structural   Ca4TaNbAl2O12
_chemical_formula_sum   'Ca4 Ta1 Nb1 Al2 O12'
_cell_volume   228.41276351
_cell_formula_units_Z   1
loop_
 _symmetry_equiv_pos_site_id
 _symmetry_equiv_pos_as_xyz
  1  'x, y, z'
loop_
 _atom_site_type_symbol
 _atom_site_label
 _atom_site_symmetry_multiplicity
 _atom_site_fract_x
 _atom_site_fract_y
 _atom_site_fract_z
 _atom_site_occupancy
  Ca  Ca0  1  0.991568  0.963109  0.248481  1
  Ca  Ca1  1  0.508377  0.462933  0.251176  1
  Ca  Ca2  1  0.491624  0.537067  0.748824  1
  Ca  Ca3  1  0.008432  0.036891  0.751520  1
  Ta  Ta4  1  0.000001  0.500000  0.500000  1
  Nb  Nb5  1  0.499999  0.999999  0.999999  1
  Al  Al6  1  0.000000  0.500001  0.000000  1
  Al  Al7  1  0.500001  0.000000  0.500000  1
  O  O8  1  0.793833  0.218201  0.039324  1
  O  O9  1  0.718126  0.707614  0.040175  1
  O  O10  1  0.075610  0.517272  0.245610  1
  O  O11  1  0.424074  0.017348  0.255972  1
  O  O12  1  0.783102  0.209407  0.460004  1
  O  O13  1  0.707999  0.716997  0.460843  1
  O  O14  1  0.292001  0.283003  0.539156  1
  O  O15  1  0.216898  0.790593  0.539995  1
  O  O16  1  0.575927  0.982651  0.744027  1
  O  O17  1  0.924390  0.482728  0.754389  1
  O  O18  1  0.281876  0.292387  0.959826  1
  O  O19  1  0.206168  0.781800  0.960675  1
