# generated using pymatgen
data_Dy4AlTc6Ru
_symmetry_space_group_name_H-M   'P 1'
_cell_length_a   5.28263000
_cell_length_b   5.28263006
_cell_length_c   9.15999800
_cell_angle_alpha   90.00000000
_cell_angle_beta   90.00000000
_cell_angle_gamma   119.99997459
_symmetry_Int_Tables_number   1
_chemical_formula_structural   Dy4AlTc6Ru
_chemical_formula_sum   'Dy4 Al1 Tc6 Ru1'
_cell_volume   221.37394946
_cell_formula_units_Z   1
loop_
 _symmetry_equiv_pos_site_id
 _symmetry_equiv_pos_as_xyz
  1  'x, y, z'
loop_
 _atom_site_type_symbol
 _atom_site_label
 _atom_site_symmetry_multiplicity
 _atom_site_fract_x
 _atom_site_fract_y
 _atom_site_fract_z
 _atom_site_occupancy
  Dy  Dy0  1  0.333333  0.666667  0.430901  1
  Dy  Dy1  1  0.666667  0.333333  0.569099  1
  Dy  Dy2  1  0.666667  0.333333  0.935979  1
  Dy  Dy3  1  0.333333  0.666667  0.064021  1
  Al  Al4  1  0.000000  0.000000  0.500000  1
  Tc  Tc5  1  0.829634  0.170366  0.251605  1
  Tc  Tc6  1  0.829634  0.659267  0.251605  1
  Tc  Tc7  1  0.340733  0.170366  0.251605  1
  Tc  Tc8  1  0.170366  0.829634  0.748395  1
  Tc  Tc9  1  0.170366  0.340733  0.748395  1
  Tc  Tc10  1  0.659267  0.829634  0.748395  1
  Ru  Ru11  1  0.000000  0.000000  0.000000  1
