# generated using pymatgen
data_Al3NiIrPt3
_symmetry_space_group_name_H-M   'P 1'
_cell_length_a   5.34760329
_cell_length_b   5.33709092
_cell_length_c   3.98019800
_cell_angle_alpha   90.00000000
_cell_angle_beta   90.00000000
_cell_angle_gamma   97.54882762
_symmetry_Int_Tables_number   1
_chemical_formula_structural   Al3NiIrPt3
_chemical_formula_sum   'Al3 Ni1 Ir1 Pt3'
_cell_volume   112.61289946
_cell_formula_units_Z   1
loop_
 _symmetry_equiv_pos_site_id
 _symmetry_equiv_pos_as_xyz
  1  'x, y, z'
loop_
 _atom_site_type_symbol
 _atom_site_label
 _atom_site_symmetry_multiplicity
 _atom_site_fract_x
 _atom_site_fract_y
 _atom_site_fract_z
 _atom_site_occupancy
  Al  Al0  1  0.723191  0.287238  0.500000  1
  Al  Al1  1  0.276809  0.712762  0.500000  1
  Al  Al2  1  0.000000  0.000000  0.000000  1
  Ni  Ni3  1  0.500000  0.500000  0.000000  1
  Ir  Ir4  1  0.000000  0.500000  0.000000  1
  Pt  Pt5  1  0.774249  0.776243  0.500000  1
  Pt  Pt6  1  0.225751  0.223757  0.500000  1
  Pt  Pt7  1  0.500000  0.000000  0.000000  1
