# generated using pymatgen
data_Ho4AlOs7
_symmetry_space_group_name_H-M   'P 1'
_cell_length_a   5.36305400
_cell_length_b   5.36305313
_cell_length_c   8.67582700
_cell_angle_alpha   90.00000000
_cell_angle_beta   90.00000000
_cell_angle_gamma   120.00000537
_symmetry_Int_Tables_number   1
_chemical_formula_structural   Ho4AlOs7
_chemical_formula_sum   'Ho4 Al1 Os7'
_cell_volume   216.10547048
_cell_formula_units_Z   1
loop_
 _symmetry_equiv_pos_site_id
 _symmetry_equiv_pos_as_xyz
  1  'x, y, z'
loop_
 _atom_site_type_symbol
 _atom_site_label
 _atom_site_symmetry_multiplicity
 _atom_site_fract_x
 _atom_site_fract_y
 _atom_site_fract_z
 _atom_site_occupancy
  Ho  Ho0  1  0.333333  0.666667  0.429556  1
  Ho  Ho1  1  0.666667  0.333333  0.570444  1
  Ho  Ho2  1  0.666667  0.333333  0.935299  1
  Ho  Ho3  1  0.333333  0.666667  0.064701  1
  Al  Al4  1  0.000000  0.000000  0.500000  1
  Os  Os5  1  0.000000  0.000000  0.000000  1
  Os  Os6  1  0.828699  0.171301  0.251147  1
  Os  Os7  1  0.828699  0.657398  0.251147  1
  Os  Os8  1  0.342602  0.171301  0.251147  1
  Os  Os9  1  0.171301  0.828699  0.748853  1
  Os  Os10  1  0.171301  0.342602  0.748853  1
  Os  Os11  1  0.657398  0.828699  0.748853  1
