# generated using pymatgen
data_Zr10Al2BiPb5
_symmetry_space_group_name_H-M   'P 1'
_cell_length_a   8.86843525
_cell_length_b   8.86843546
_cell_length_c   5.97104500
_cell_angle_alpha   90.00000000
_cell_angle_beta   90.00000000
_cell_angle_gamma   119.93902848
_symmetry_Int_Tables_number   1
_chemical_formula_structural   Zr10Al2BiPb5
_chemical_formula_sum   'Zr10 Al2 Bi1 Pb5'
_cell_volume   406.95040362
_cell_formula_units_Z   1
loop_
 _symmetry_equiv_pos_site_id
 _symmetry_equiv_pos_as_xyz
  1  'x, y, z'
loop_
 _atom_site_type_symbol
 _atom_site_label
 _atom_site_symmetry_multiplicity
 _atom_site_fract_x
 _atom_site_fract_y
 _atom_site_fract_z
 _atom_site_occupancy
  Zr  Zr0  1  0.666969  0.333342  0.999784  1
  Zr  Zr1  1  0.333342  0.666969  0.999784  1
  Zr  Zr2  1  0.333342  0.666969  0.500216  1
  Zr  Zr3  1  0.666969  0.333342  0.500216  1
  Zr  Zr4  1  0.732981  0.732981  0.750000  1
  Zr  Zr5  1  0.266138  0.998809  0.750000  1
  Zr  Zr6  1  0.998809  0.266138  0.750000  1
  Zr  Zr7  1  0.265982  0.265982  0.250000  1
  Zr  Zr8  1  0.733569  0.999745  0.250000  1
  Zr  Zr9  1  0.999745  0.733569  0.250000  1
  Al  Al10  1  0.999473  0.999473  0.999888  1
  Al  Al11  1  0.999473  0.999473  0.500112  1
  Bi  Bi12  1  0.388436  0.388436  0.750000  1
  Pb  Pb13  1  0.613620  0.000015  0.750000  1
  Pb  Pb14  1  0.000015  0.613620  0.750000  1
  Pb  Pb15  1  0.614076  0.614076  0.250000  1
  Pb  Pb16  1  0.387136  0.999927  0.250000  1
  Pb  Pb17  1  0.999927  0.387136  0.250000  1
