# generated using pymatgen
data_Tb3ScAl2NiRh2
_symmetry_space_group_name_H-M   'P 1'
_cell_length_a   7.02772800
_cell_length_b   7.08075793
_cell_length_c   4.14653300
_cell_angle_alpha   90.00000000
_cell_angle_beta   90.00000000
_cell_angle_gamma   119.75255427
_symmetry_Int_Tables_number   1
_chemical_formula_structural   Tb3ScAl2NiRh2
_chemical_formula_sum   'Tb3 Sc1 Al2 Ni1 Rh2'
_cell_volume   179.13809030
_cell_formula_units_Z   1
loop_
 _symmetry_equiv_pos_site_id
 _symmetry_equiv_pos_as_xyz
  1  'x, y, z'
loop_
 _atom_site_type_symbol
 _atom_site_label
 _atom_site_symmetry_multiplicity
 _atom_site_fract_x
 _atom_site_fract_y
 _atom_site_fract_z
 _atom_site_occupancy
  Tb  Tb0  1  0.390621  0.000000  0.500000  1
  Tb  Tb1  1  0.015239  0.428293  0.500000  1
  Tb  Tb2  1  0.586946  0.571707  0.500000  1
  Sc  Sc3  1  0.762969  0.000000  0.000000  1
  Al  Al4  1  0.004035  0.764783  0.000000  1
  Al  Al5  1  0.239252  0.235217  0.000000  1
  Ni  Ni6  1  0.005112  0.000000  0.500000  1
  Rh  Rh7  1  0.329559  0.663291  0.000000  1
  Rh  Rh8  1  0.666268  0.336709  0.000000  1
