# generated using pymatgen
data_Ho10AlCdBi4
_symmetry_space_group_name_H-M   'P 1'
_cell_length_a   9.09929000
_cell_length_b   9.09928920
_cell_length_c   6.56048600
_cell_angle_alpha   90.00000000
_cell_angle_beta   90.00000000
_cell_angle_gamma   120.21598608
_symmetry_Int_Tables_number   1
_chemical_formula_structural   Ho10AlCdBi4
_chemical_formula_sum   'Ho10 Al1 Cd1 Bi4'
_cell_volume   469.38833474
_cell_formula_units_Z   1
loop_
 _symmetry_equiv_pos_site_id
 _symmetry_equiv_pos_as_xyz
  1  'x, y, z'
loop_
 _atom_site_type_symbol
 _atom_site_label
 _atom_site_symmetry_multiplicity
 _atom_site_fract_x
 _atom_site_fract_y
 _atom_site_fract_z
 _atom_site_occupancy
  Ho  Ho0  1  0.656818  0.342065  0.998224  1
  Ho  Ho1  1  0.342065  0.656818  0.998224  1
  Ho  Ho2  1  0.342065  0.656818  0.501776  1
  Ho  Ho3  1  0.656818  0.342065  0.501776  1
  Ho  Ho4  1  0.754205  0.754205  0.750000  1
  Ho  Ho5  1  0.243749  0.016970  0.750000  1
  Ho  Ho6  1  0.016970  0.243749  0.750000  1
  Ho  Ho7  1  0.241120  0.241120  0.250000  1
  Ho  Ho8  1  0.756863  0.987389  0.250000  1
  Ho  Ho9  1  0.987389  0.756863  0.250000  1
  Al  Al10  1  0.398242  0.398242  0.750000  1
  Cd  Cd11  1  0.601991  0.601991  0.250000  1
  Bi  Bi12  1  0.612740  0.007121  0.750000  1
  Bi  Bi13  1  0.007121  0.612740  0.750000  1
  Bi  Bi14  1  0.388100  0.993750  0.250000  1
  Bi  Bi15  1  0.993750  0.388100  0.250000  1
