# generated using pymatgen
data_Tb3ScAl2Pd3
_symmetry_space_group_name_H-M   'P 1'
_cell_length_a   7.17846876
_cell_length_b   7.17846921
_cell_length_c   4.24633200
_cell_angle_alpha   90.00000000
_cell_angle_beta   90.00000000
_cell_angle_gamma   119.48762730
_symmetry_Int_Tables_number   1
_chemical_formula_structural   Tb3ScAl2Pd3
_chemical_formula_sum   'Tb3 Sc1 Al2 Pd3'
_cell_volume   190.47037009
_cell_formula_units_Z   1
loop_
 _symmetry_equiv_pos_site_id
 _symmetry_equiv_pos_as_xyz
  1  'x, y, z'
loop_
 _atom_site_type_symbol
 _atom_site_label
 _atom_site_symmetry_multiplicity
 _atom_site_fract_x
 _atom_site_fract_y
 _atom_site_fract_z
 _atom_site_occupancy
  Tb  Tb0  1  0.012276  0.581920  0.500000  1
  Tb  Tb1  1  0.395013  0.395013  0.500000  1
  Tb  Tb2  1  0.581920  0.012276  0.500000  1
  Sc  Sc3  1  0.764844  0.764844  0.000000  1
  Al  Al4  1  0.242592  0.003425  0.000000  1
  Al  Al5  1  0.003425  0.242592  0.000000  1
  Pd  Pd6  1  0.327746  0.665754  0.000000  1
  Pd  Pd7  1  0.665754  0.327746  0.000000  1
  Pd  Pd8  1  0.006431  0.006431  0.500000  1
