# generated using pymatgen
data_Tb2Dy2AlTc7
_symmetry_space_group_name_H-M   'P 1'
_cell_length_a   5.33385800
_cell_length_b   5.33385741
_cell_length_c   9.07083500
_cell_angle_alpha   90.00000000
_cell_angle_beta   90.00000000
_cell_angle_gamma   119.99997886
_symmetry_Int_Tables_number   1
_chemical_formula_structural   Tb2Dy2AlTc7
_chemical_formula_sum   'Tb2 Dy2 Al1 Tc7'
_cell_volume   223.49141351
_cell_formula_units_Z   1
loop_
 _symmetry_equiv_pos_site_id
 _symmetry_equiv_pos_as_xyz
  1  'x, y, z'
loop_
 _atom_site_type_symbol
 _atom_site_label
 _atom_site_symmetry_multiplicity
 _atom_site_fract_x
 _atom_site_fract_y
 _atom_site_fract_z
 _atom_site_occupancy
  Tb  Tb0  1  0.333333  0.666667  0.434433  1
  Tb  Tb1  1  0.666667  0.333333  0.565567  1
  Dy  Dy2  1  0.666667  0.333333  0.935541  1
  Dy  Dy3  1  0.333333  0.666667  0.064459  1
  Al  Al4  1  0.000000  0.000000  0.500000  1
  Tc  Tc5  1  0.000000  0.000000  0.000000  1
  Tc  Tc6  1  0.830129  0.169871  0.249971  1
  Tc  Tc7  1  0.830129  0.660258  0.249971  1
  Tc  Tc8  1  0.339742  0.169871  0.249971  1
  Tc  Tc9  1  0.169871  0.830129  0.750029  1
  Tc  Tc10  1  0.169871  0.339742  0.750029  1
  Tc  Tc11  1  0.660258  0.830129  0.750029  1
