# generated using pymatgen
data_Mn4Al2(PdPt)5
_symmetry_space_group_name_H-M   'P 1'
_cell_length_a   4.09061100
_cell_length_b   5.46400310
_cell_length_c   10.72276315
_cell_angle_alpha   90.07268455
_cell_angle_beta   90.00000000
_cell_angle_gamma   90.00000000
_symmetry_Int_Tables_number   1
_chemical_formula_structural   Mn4Al2(PdPt)5
_chemical_formula_sum   'Mn4 Al2 Pd5 Pt5'
_cell_volume   239.66547865
_cell_formula_units_Z   1
loop_
 _symmetry_equiv_pos_site_id
 _symmetry_equiv_pos_as_xyz
  1  'x, y, z'
loop_
 _atom_site_type_symbol
 _atom_site_label
 _atom_site_symmetry_multiplicity
 _atom_site_fract_x
 _atom_site_fract_y
 _atom_site_fract_z
 _atom_site_occupancy
  Mn  Mn0  1  0.500000  0.177291  0.362174  1
  Mn  Mn1  1  0.500000  0.822709  0.637826  1
  Mn  Mn2  1  0.500000  0.677296  0.137827  1
  Mn  Mn3  1  0.500000  0.322704  0.862173  1
  Al  Al4  1  0.000000  0.000000  0.000000  1
  Al  Al5  1  0.000000  0.500000  0.500000  1
  Pd  Pd6  1  0.000000  0.500000  0.000000  1
  Pd  Pd7  1  0.000000  0.919604  0.239692  1
  Pd  Pd8  1  0.000000  0.080396  0.760308  1
  Pd  Pd9  1  0.000000  0.419855  0.259605  1
  Pd  Pd10  1  0.000000  0.580145  0.740395  1
  Pt  Pt11  1  0.500000  0.185696  0.108393  1
  Pt  Pt12  1  0.500000  0.814304  0.891607  1
  Pt  Pt13  1  0.500000  0.686552  0.391462  1
  Pt  Pt14  1  0.500000  0.313448  0.608538  1
  Pt  Pt15  1  0.000000  0.000000  0.500000  1
