# generated using pymatgen
data_Nb6Al9IrRh2
_symmetry_space_group_name_H-M   'P 1'
_cell_length_a   9.06809400
_cell_length_b   9.06809320
_cell_length_c   7.93428200
_cell_angle_alpha   90.00000000
_cell_angle_beta   90.00000000
_cell_angle_gamma   119.99998832
_symmetry_Int_Tables_number   1
_chemical_formula_structural   Nb6Al9IrRh2
_chemical_formula_sum   'Nb12 Al18 Ir2 Rh4'
_cell_volume   565.02843395
_cell_formula_units_Z   2
loop_
 _symmetry_equiv_pos_site_id
 _symmetry_equiv_pos_as_xyz
  1  'x, y, z'
loop_
 _atom_site_type_symbol
 _atom_site_label
 _atom_site_symmetry_multiplicity
 _atom_site_fract_x
 _atom_site_fract_y
 _atom_site_fract_z
 _atom_site_occupancy
  Nb  Nb0  1  0.332801  0.000000  0.072525  1
  Nb  Nb1  1  0.667199  0.000000  0.927475  1
  Nb  Nb2  1  0.000000  0.332801  0.072525  1
  Nb  Nb3  1  0.667199  0.000000  0.572525  1
  Nb  Nb4  1  0.000000  0.332801  0.427475  1
  Nb  Nb5  1  0.000000  0.667199  0.927475  1
  Nb  Nb6  1  0.332801  0.000000  0.427475  1
  Nb  Nb7  1  0.000000  0.667199  0.572525  1
  Nb  Nb8  1  0.667199  0.667199  0.072525  1
  Nb  Nb9  1  0.332801  0.332801  0.927475  1
  Nb  Nb10  1  0.332801  0.332801  0.572525  1
  Nb  Nb11  1  0.667199  0.667199  0.427475  1
  Al  Al12  1  0.163412  0.496491  0.750000  1
  Al  Al13  1  0.836588  0.503509  0.250000  1
  Al  Al14  1  0.503509  0.666921  0.750000  1
  Al  Al15  1  0.496491  0.163412  0.750000  1
  Al  Al16  1  0.496491  0.333079  0.250000  1
  Al  Al17  1  0.503509  0.836588  0.250000  1
  Al  Al18  1  0.333079  0.836588  0.750000  1
  Al  Al19  1  0.666921  0.503509  0.750000  1
  Al  Al20  1  0.666921  0.163412  0.250000  1
  Al  Al21  1  0.333079  0.496491  0.250000  1
  Al  Al22  1  0.836588  0.333079  0.750000  1
  Al  Al23  1  0.163412  0.666921  0.250000  1
  Al  Al24  1  0.170449  0.000000  0.750000  1
  Al  Al25  1  0.829551  0.000000  0.250000  1
  Al  Al26  1  0.000000  0.170449  0.750000  1
  Al  Al27  1  0.000000  0.829551  0.250000  1
  Al  Al28  1  0.829551  0.829551  0.750000  1
  Al  Al29  1  0.170449  0.170449  0.250000  1
  Ir  Ir30  1  0.000000  0.000000  0.500000  1
  Ir  Ir31  1  0.000000  0.000000  0.000000  1
  Rh  Rh32  1  0.333333  0.666667  0.500000  1
  Rh  Rh33  1  0.666667  0.333333  0.500000  1
  Rh  Rh34  1  0.666667  0.333333  0.000000  1
  Rh  Rh35  1  0.333333  0.666667  0.000000  1
