# generated using pymatgen
data_Th3AlIn2Ru2Rh
_symmetry_space_group_name_H-M   'P 1'
_cell_length_a   7.51189500
_cell_length_b   7.52268983
_cell_length_c   4.06227300
_cell_angle_alpha   90.00000000
_cell_angle_beta   90.00000000
_cell_angle_gamma   119.95253856
_symmetry_Int_Tables_number   1
_chemical_formula_structural   Th3AlIn2Ru2Rh
_chemical_formula_sum   'Th3 Al1 In2 Ru2 Rh1'
_cell_volume   198.89776646
_cell_formula_units_Z   1
loop_
 _symmetry_equiv_pos_site_id
 _symmetry_equiv_pos_as_xyz
  1  'x, y, z'
loop_
 _atom_site_type_symbol
 _atom_site_label
 _atom_site_symmetry_multiplicity
 _atom_site_fract_x
 _atom_site_fract_y
 _atom_site_fract_z
 _atom_site_occupancy
  Th  Th0  1  0.996173  0.410806  0.500000  1
  Th  Th1  1  0.585368  0.589194  0.500000  1
  Th  Th2  1  0.433585  0.000000  0.500000  1
  Al  Al3  1  0.755265  0.000000  0.000000  1
  In  In4  1  0.004382  0.760975  0.000000  1
  In  In5  1  0.243408  0.239025  0.000000  1
  Ru  Ru6  1  0.347284  0.675058  0.000000  1
  Ru  Ru7  1  0.672227  0.324942  0.000000  1
  Rh  Rh8  1  0.962307  0.000000  0.500000  1
