# generated using pymatgen
data_Ce4AlTc5Os2
_symmetry_space_group_name_H-M   'P 1'
_cell_length_a   5.18232200
_cell_length_b   5.34740323
_cell_length_c   9.23221500
_cell_angle_alpha   90.00000000
_cell_angle_beta   90.00000000
_cell_angle_gamma   118.98393411
_symmetry_Int_Tables_number   1
_chemical_formula_structural   Ce4AlTc5Os2
_chemical_formula_sum   'Ce4 Al1 Tc5 Os2'
_cell_volume   223.79994563
_cell_formula_units_Z   1
loop_
 _symmetry_equiv_pos_site_id
 _symmetry_equiv_pos_as_xyz
  1  'x, y, z'
loop_
 _atom_site_type_symbol
 _atom_site_label
 _atom_site_symmetry_multiplicity
 _atom_site_fract_x
 _atom_site_fract_y
 _atom_site_fract_z
 _atom_site_occupancy
  Ce  Ce0  1  0.666787  0.333572  0.062125  1
  Ce  Ce1  1  0.666787  0.333572  0.437876  1
  Ce  Ce2  1  0.333199  0.666399  0.561003  1
  Ce  Ce3  1  0.333199  0.666399  0.938997  1
  Al  Al4  1  0.835124  0.670247  0.750000  1
  Tc  Tc5  1  0.170293  0.340586  0.250000  1
  Tc  Tc6  1  0.169754  0.830204  0.250000  1
  Tc  Tc7  1  0.660450  0.830204  0.250000  1
  Tc  Tc8  1  0.342966  0.166183  0.750000  1
  Tc  Tc9  1  0.823218  0.166183  0.750000  1
  Os  Os10  1  0.999112  0.998224  0.999207  1
  Os  Os11  1  0.999112  0.998224  0.500793  1
