# generated using pymatgen
data_La2Al2IrPt
_symmetry_space_group_name_H-M   'P 1'
_cell_length_a   4.49162600
_cell_length_b   7.13962500
_cell_length_c   8.05225600
_cell_angle_alpha   90.00000000
_cell_angle_beta   90.00000000
_cell_angle_gamma   90.00000000
_symmetry_Int_Tables_number   1
_chemical_formula_structural   La2Al2IrPt
_chemical_formula_sum   'La4 Al4 Ir2 Pt2'
_cell_volume   258.22397510
_cell_formula_units_Z   2
loop_
 _symmetry_equiv_pos_site_id
 _symmetry_equiv_pos_as_xyz
  1  'x, y, z'
loop_
 _atom_site_type_symbol
 _atom_site_label
 _atom_site_symmetry_multiplicity
 _atom_site_fract_x
 _atom_site_fract_y
 _atom_site_fract_z
 _atom_site_occupancy
  La  La0  1  0.250000  0.036438  0.677836  1
  La  La1  1  0.250000  0.536438  0.822164  1
  La  La2  1  0.750000  0.970017  0.314196  1
  La  La3  1  0.750000  0.470017  0.185804  1
  Al  Al4  1  0.250000  0.137492  0.066265  1
  Al  Al5  1  0.250000  0.637492  0.433735  1
  Al  Al6  1  0.750000  0.858551  0.937880  1
  Al  Al7  1  0.750000  0.358551  0.562120  1
  Ir  Ir8  1  0.250000  0.278012  0.386293  1
  Ir  Ir9  1  0.250000  0.778012  0.113707  1
  Pt  Pt10  1  0.750000  0.719490  0.614785  1
  Pt  Pt11  1  0.750000  0.219490  0.885215  1
