# generated using pymatgen
data_Y2Th2AlRe7
_symmetry_space_group_name_H-M   'P 1'
_cell_length_a   5.45553500
_cell_length_b   5.45553347
_cell_length_c   9.04221100
_cell_angle_alpha   90.00000000
_cell_angle_beta   90.00000000
_cell_angle_gamma   119.99999109
_symmetry_Int_Tables_number   1
_chemical_formula_structural   Y2Th2AlRe7
_chemical_formula_sum   'Y2 Th2 Al1 Re7'
_cell_volume   233.06651302
_cell_formula_units_Z   1
loop_
 _symmetry_equiv_pos_site_id
 _symmetry_equiv_pos_as_xyz
  1  'x, y, z'
loop_
 _atom_site_type_symbol
 _atom_site_label
 _atom_site_symmetry_multiplicity
 _atom_site_fract_x
 _atom_site_fract_y
 _atom_site_fract_z
 _atom_site_occupancy
  Y  Y0  1  0.666667  0.333333  0.937349  1
  Y  Y1  1  0.333333  0.666667  0.062651  1
  Th  Th2  1  0.333333  0.666667  0.433014  1
  Th  Th3  1  0.666667  0.333333  0.566986  1
  Al  Al4  1  0.000000  0.000000  0.500000  1
  Re  Re5  1  0.000000  0.000000  0.000000  1
  Re  Re6  1  0.829811  0.170189  0.244440  1
  Re  Re7  1  0.829811  0.659622  0.244440  1
  Re  Re8  1  0.340378  0.170189  0.244440  1
  Re  Re9  1  0.170189  0.829811  0.755560  1
  Re  Re10  1  0.170189  0.340378  0.755560  1
  Re  Re11  1  0.659622  0.829811  0.755560  1
