# generated using pymatgen
data_Tb3AlIn2PdAu2
_symmetry_space_group_name_H-M   'P 1'
_cell_length_a   7.68472875
_cell_length_b   7.68473006
_cell_length_c   3.97167200
_cell_angle_alpha   90.00000000
_cell_angle_beta   90.00000000
_cell_angle_gamma   120.99166683
_symmetry_Int_Tables_number   1
_chemical_formula_structural   Tb3AlIn2PdAu2
_chemical_formula_sum   'Tb3 Al1 In2 Pd1 Au2'
_cell_volume   201.06388808
_cell_formula_units_Z   1
loop_
 _symmetry_equiv_pos_site_id
 _symmetry_equiv_pos_as_xyz
  1  'x, y, z'
loop_
 _atom_site_type_symbol
 _atom_site_label
 _atom_site_symmetry_multiplicity
 _atom_site_fract_x
 _atom_site_fract_y
 _atom_site_fract_z
 _atom_site_occupancy
  Tb  Tb0  1  0.594172  0.999050  0.500000  1
  Tb  Tb1  1  0.414931  0.414931  0.500000  1
  Tb  Tb2  1  0.999050  0.594172  0.500000  1
  Al  Al3  1  0.752978  0.752978  0.000000  1
  In  In4  1  0.249014  0.000510  0.000000  1
  In  In5  1  0.000510  0.249014  0.000000  1
  Pd  Pd6  1  0.971333  0.971333  0.500000  1
  Au  Au7  1  0.670802  0.347210  0.000000  1
  Au  Au8  1  0.347210  0.670802  0.000000  1
