# generated using pymatgen
data_Tb7YAl3Os
_symmetry_space_group_name_H-M   'P 1'
_cell_length_a   10.26919900
_cell_length_b   10.26919993
_cell_length_c   6.85327900
_cell_angle_alpha   90.00000000
_cell_angle_beta   90.00000000
_cell_angle_gamma   120.00000021
_symmetry_Int_Tables_number   1
_chemical_formula_structural   Tb7YAl3Os
_chemical_formula_sum   'Tb14 Y2 Al6 Os2'
_cell_volume   625.89606684
_cell_formula_units_Z   2
loop_
 _symmetry_equiv_pos_site_id
 _symmetry_equiv_pos_as_xyz
  1  'x, y, z'
loop_
 _atom_site_type_symbol
 _atom_site_label
 _atom_site_symmetry_multiplicity
 _atom_site_fract_x
 _atom_site_fract_y
 _atom_site_fract_z
 _atom_site_occupancy
  Tb  Tb0  1  0.173645  0.826355  0.998922  1
  Tb  Tb1  1  0.826355  0.173645  0.498922  1
  Tb  Tb2  1  0.173645  0.347291  0.998922  1
  Tb  Tb3  1  0.652709  0.826355  0.998922  1
  Tb  Tb4  1  0.347291  0.173645  0.498922  1
  Tb  Tb5  1  0.826355  0.652709  0.498922  1
  Tb  Tb6  1  0.333333  0.666667  0.658156  1
  Tb  Tb7  1  0.666667  0.333333  0.158156  1
  Tb  Tb8  1  0.468624  0.531376  0.293217  1
  Tb  Tb9  1  0.531376  0.468624  0.793217  1
  Tb  Tb10  1  0.468624  0.937247  0.293217  1
  Tb  Tb11  1  0.062753  0.531376  0.293217  1
  Tb  Tb12  1  0.937247  0.468624  0.793217  1
  Tb  Tb13  1  0.531376  0.062753  0.793217  1
  Y  Y14  1  0.000000  0.000000  0.275335  1
  Y  Y15  1  0.000000  0.000000  0.775335  1
  Al  Al16  1  0.162335  0.837665  0.532113  1
  Al  Al17  1  0.837665  0.162335  0.032113  1
  Al  Al18  1  0.162335  0.324672  0.532113  1
  Al  Al19  1  0.675328  0.837665  0.532113  1
  Al  Al20  1  0.324672  0.162335  0.032113  1
  Al  Al21  1  0.837665  0.675328  0.032113  1
  Os  Os22  1  0.333333  0.666667  0.066817  1
  Os  Os23  1  0.666667  0.333333  0.566817  1
