# generated using pymatgen
data_Tb4Mn2(AlRe)3
_symmetry_space_group_name_H-M   'P 1'
_cell_length_a   5.44201400
_cell_length_b   5.44201454
_cell_length_c   8.86271800
_cell_angle_alpha   90.00000000
_cell_angle_beta   90.00000000
_cell_angle_gamma   119.99999669
_symmetry_Int_Tables_number   1
_chemical_formula_structural   Tb4Mn2(AlRe)3
_chemical_formula_sum   'Tb4 Mn2 Al3 Re3'
_cell_volume   227.30915621
_cell_formula_units_Z   1
loop_
 _symmetry_equiv_pos_site_id
 _symmetry_equiv_pos_as_xyz
  1  'x, y, z'
loop_
 _atom_site_type_symbol
 _atom_site_label
 _atom_site_symmetry_multiplicity
 _atom_site_fract_x
 _atom_site_fract_y
 _atom_site_fract_z
 _atom_site_occupancy
  Tb  Tb0  1  0.666666  0.333333  0.066052  1
  Tb  Tb1  1  0.666666  0.333333  0.433948  1
  Tb  Tb2  1  0.333334  0.666667  0.557641  1
  Tb  Tb3  1  0.333334  0.666667  0.942359  1
  Mn  Mn4  1  0.000000  0.000000  0.005745  1
  Mn  Mn5  1  0.000000  0.000000  0.494255  1
  Al  Al6  1  0.329970  0.164985  0.750000  1
  Al  Al7  1  0.835014  0.164985  0.750000  1
  Al  Al8  1  0.835014  0.670030  0.750000  1
  Re  Re9  1  0.169276  0.338551  0.250000  1
  Re  Re10  1  0.169276  0.830724  0.250000  1
  Re  Re11  1  0.661448  0.830724  0.250000  1
