# generated using pymatgen
data_Th3Al2HgPt3
_symmetry_space_group_name_H-M   'P 1'
_cell_length_a   7.36791645
_cell_length_b   7.36791610
_cell_length_c   4.17528900
_cell_angle_alpha   90.00000000
_cell_angle_beta   90.00000000
_cell_angle_gamma   118.09000234
_symmetry_Int_Tables_number   1
_chemical_formula_structural   Th3Al2HgPt3
_chemical_formula_sum   'Th3 Al2 Hg1 Pt3'
_cell_volume   199.96197122
_cell_formula_units_Z   1
loop_
 _symmetry_equiv_pos_site_id
 _symmetry_equiv_pos_as_xyz
  1  'x, y, z'
loop_
 _atom_site_type_symbol
 _atom_site_label
 _atom_site_symmetry_multiplicity
 _atom_site_fract_x
 _atom_site_fract_y
 _atom_site_fract_z
 _atom_site_occupancy
  Th  Th0  1  0.418043  0.418043  0.500000  1
  Th  Th1  1  0.584357  0.998146  0.500000  1
  Th  Th2  1  0.998146  0.584357  0.500000  1
  Al  Al3  1  0.235765  0.000811  0.000000  1
  Al  Al4  1  0.000811  0.235765  0.000000  1
  Hg  Hg5  1  0.754964  0.754964  0.000000  1
  Pt  Pt6  1  0.663430  0.309277  0.000000  1
  Pt  Pt7  1  0.309277  0.663430  0.000000  1
  Pt  Pt8  1  0.035208  0.035208  0.500000  1
