# generated using pymatgen
data_Mn2AlVPt4
_symmetry_space_group_name_H-M   'P 1'
_cell_length_a   3.96575400
_cell_length_b   3.96575400
_cell_length_c   7.45546700
_cell_angle_alpha   90.00000000
_cell_angle_beta   90.00000000
_cell_angle_gamma   90.00000000
_symmetry_Int_Tables_number   1
_chemical_formula_structural   Mn2AlVPt4
_chemical_formula_sum   'Mn2 Al1 V1 Pt4'
_cell_volume   117.25365630
_cell_formula_units_Z   1
loop_
 _symmetry_equiv_pos_site_id
 _symmetry_equiv_pos_as_xyz
  1  'x, y, z'
loop_
 _atom_site_type_symbol
 _atom_site_label
 _atom_site_symmetry_multiplicity
 _atom_site_fract_x
 _atom_site_fract_y
 _atom_site_fract_z
 _atom_site_occupancy
  Mn  Mn0  1  0.500000  0.500000  0.000000  1
  Mn  Mn1  1  0.500000  0.500000  0.500000  1
  Al  Al2  1  0.000000  0.000000  0.000000  1
  V  V3  1  0.000000  0.000000  0.500000  1
  Pt  Pt4  1  0.500000  0.000000  0.243970  1
  Pt  Pt5  1  0.500000  0.000000  0.756030  1
  Pt  Pt6  1  0.000000  0.500000  0.243970  1
  Pt  Pt7  1  0.000000  0.500000  0.756030  1
