# generated using pymatgen
data_Th3Al3IrPtAu
_symmetry_space_group_name_H-M   'P 1'
_cell_length_a   7.36298500
_cell_length_b   7.36298520
_cell_length_c   4.18291600
_cell_angle_alpha   90.00000000
_cell_angle_beta   90.00000000
_cell_angle_gamma   120.00000359
_symmetry_Int_Tables_number   1
_chemical_formula_structural   Th3Al3IrPtAu
_chemical_formula_sum   'Th3 Al3 Ir1 Pt1 Au1'
_cell_volume   196.38920068
_cell_formula_units_Z   1
loop_
 _symmetry_equiv_pos_site_id
 _symmetry_equiv_pos_as_xyz
  1  'x, y, z'
loop_
 _atom_site_type_symbol
 _atom_site_label
 _atom_site_symmetry_multiplicity
 _atom_site_fract_x
 _atom_site_fract_y
 _atom_site_fract_z
 _atom_site_occupancy
  Th  Th0  1  0.423942  0.011655  0.500000  1
  Th  Th1  1  0.988345  0.412287  0.500000  1
  Th  Th2  1  0.587713  0.576058  0.500000  1
  Al  Al3  1  0.771186  0.006695  0.000000  1
  Al  Al4  1  0.993305  0.764490  0.000000  1
  Al  Al5  1  0.235510  0.228814  0.000000  1
  Ir  Ir6  1  0.666667  0.333333  0.000000  1
  Pt  Pt7  1  0.000000  0.000000  0.500000  1
  Au  Au8  1  0.333333  0.666667  0.000000  1
