# generated using pymatgen
data_PrThU(AlIr)3
_symmetry_space_group_name_H-M   'P 1'
_cell_length_a   7.13975872
_cell_length_b   7.24957281
_cell_length_c   4.08305900
_cell_angle_alpha   90.00000000
_cell_angle_beta   90.00000000
_cell_angle_gamma   119.77558054
_symmetry_Int_Tables_number   1
_chemical_formula_structural   PrThU(AlIr)3
_chemical_formula_sum   'Pr1 Th1 U1 Al3 Ir3'
_cell_volume   183.43825747
_cell_formula_units_Z   1
loop_
 _symmetry_equiv_pos_site_id
 _symmetry_equiv_pos_as_xyz
  1  'x, y, z'
loop_
 _atom_site_type_symbol
 _atom_site_label
 _atom_site_symmetry_multiplicity
 _atom_site_fract_x
 _atom_site_fract_y
 _atom_site_fract_z
 _atom_site_occupancy
  Pr  Pr0  1  0.417985  0.999141  0.500000  1
  Th  Th1  1  0.581813  0.579657  0.500000  1
  U  U2  1  0.002014  0.419834  0.500000  1
  Al  Al3  1  0.763738  0.007286  0.000000  1
  Al  Al4  1  0.005238  0.775442  0.000000  1
  Al  Al5  1  0.227898  0.226850  0.000000  1
  Ir  Ir6  1  0.300640  0.620309  0.000000  1
  Ir  Ir7  1  0.714834  0.360100  0.000000  1
  Ir  Ir8  1  0.985841  0.011381  0.500000  1
