# generated using pymatgen
data_Nd3ThAl4Ir3Rh
_symmetry_space_group_name_H-M   'P 1'
_cell_length_a   4.31620100
_cell_length_b   7.04701806
_cell_length_c   8.12836687
_cell_angle_alpha   90.54925269
_cell_angle_beta   90.00000000
_cell_angle_gamma   90.00000000
_symmetry_Int_Tables_number   1
_chemical_formula_structural   Nd3ThAl4Ir3Rh
_chemical_formula_sum   'Nd3 Th1 Al4 Ir3 Rh1'
_cell_volume   247.22386241
_cell_formula_units_Z   1
loop_
 _symmetry_equiv_pos_site_id
 _symmetry_equiv_pos_as_xyz
  1  'x, y, z'
loop_
 _atom_site_type_symbol
 _atom_site_label
 _atom_site_symmetry_multiplicity
 _atom_site_fract_x
 _atom_site_fract_y
 _atom_site_fract_z
 _atom_site_occupancy
  Nd  Nd0  1  0.750000  0.462439  0.815320  1
  Nd  Nd1  1  0.750000  0.959309  0.680763  1
  Nd  Nd2  1  0.250000  0.037603  0.320338  1
  Th  Th3  1  0.250000  0.537350  0.179071  1
  Al  Al4  1  0.250000  0.632270  0.561923  1
  Al  Al5  1  0.750000  0.362991  0.439733  1
  Al  Al6  1  0.750000  0.872616  0.061034  1
  Al  Al7  1  0.250000  0.134497  0.939599  1
  Ir  Ir8  1  0.250000  0.768815  0.889325  1
  Ir  Ir9  1  0.750000  0.240600  0.121080  1
  Ir  Ir10  1  0.750000  0.723910  0.375238  1
  Rh  Rh11  1  0.250000  0.267601  0.616576  1
