# generated using pymatgen
data_Yb3YAlOs7
_symmetry_space_group_name_H-M   'P 1'
_cell_length_a   5.32564400
_cell_length_b   5.32564350
_cell_length_c   8.72293400
_cell_angle_alpha   90.00000000
_cell_angle_beta   90.00000000
_cell_angle_gamma   119.99999066
_symmetry_Int_Tables_number   1
_chemical_formula_structural   Yb3YAlOs7
_chemical_formula_sum   'Yb3 Y1 Al1 Os7'
_cell_volume   214.25821514
_cell_formula_units_Z   1
loop_
 _symmetry_equiv_pos_site_id
 _symmetry_equiv_pos_as_xyz
  1  'x, y, z'
loop_
 _atom_site_type_symbol
 _atom_site_label
 _atom_site_symmetry_multiplicity
 _atom_site_fract_x
 _atom_site_fract_y
 _atom_site_fract_z
 _atom_site_occupancy
  Yb  Yb0  1  0.666667  0.333333  0.571696  1
  Yb  Yb1  1  0.666667  0.333333  0.935447  1
  Yb  Yb2  1  0.333333  0.666667  0.059783  1
  Y  Y3  1  0.333333  0.666667  0.429872  1
  Al  Al4  1  0.000000  0.000000  0.500608  1
  Os  Os5  1  0.000000  0.000000  0.001540  1
  Os  Os6  1  0.828867  0.171133  0.250668  1
  Os  Os7  1  0.828867  0.657734  0.250668  1
  Os  Os8  1  0.342266  0.171133  0.250668  1
  Os  Os9  1  0.171160  0.828840  0.749683  1
  Os  Os10  1  0.171160  0.342320  0.749683  1
  Os  Os11  1  0.657680  0.828840  0.749683  1
