# generated using pymatgen
data_Ho4MnAlRu6
_symmetry_space_group_name_H-M   'P 1'
_cell_length_a   5.45497616
_cell_length_b   5.17956329
_cell_length_c   8.87975000
_cell_angle_alpha   90.00000000
_cell_angle_beta   90.00000000
_cell_angle_gamma   121.74135190
_symmetry_Int_Tables_number   1
_chemical_formula_structural   Ho4MnAlRu6
_chemical_formula_sum   'Ho4 Mn1 Al1 Ru6'
_cell_volume   213.36645881
_cell_formula_units_Z   1
loop_
 _symmetry_equiv_pos_site_id
 _symmetry_equiv_pos_as_xyz
  1  'x, y, z'
loop_
 _atom_site_type_symbol
 _atom_site_label
 _atom_site_symmetry_multiplicity
 _atom_site_fract_x
 _atom_site_fract_y
 _atom_site_fract_z
 _atom_site_occupancy
  Ho  Ho0  1  0.672393  0.344479  0.568084  1
  Ho  Ho1  1  0.330974  0.662055  0.436666  1
  Ho  Ho2  1  0.330974  0.662055  0.063334  1
  Ho  Ho3  1  0.672393  0.344479  0.931916  1
  Mn  Mn4  1  0.151112  0.302192  0.750000  1
  Al  Al5  1  0.838414  0.676423  0.250000  1
  Ru  Ru6  1  0.008205  0.015677  0.503021  1
  Ru  Ru7  1  0.008205  0.015677  0.996979  1
  Ru  Ru8  1  0.178983  0.821282  0.750000  1
  Ru  Ru9  1  0.641764  0.821036  0.750000  1
  Ru  Ru10  1  0.818281  0.167494  0.250000  1
  Ru  Ru11  1  0.348301  0.167151  0.250000  1
