# generated using pymatgen
data_Hf6AlSiSb
_symmetry_space_group_name_H-M   'P 1'
_cell_length_a   7.51526200
_cell_length_b   7.51526217
_cell_length_c   3.78602200
_cell_angle_alpha   90.00000000
_cell_angle_beta   90.00000000
_cell_angle_gamma   119.99999927
_symmetry_Int_Tables_number   1
_chemical_formula_structural   Hf6AlSiSb
_chemical_formula_sum   'Hf6 Al1 Si1 Sb1'
_cell_volume   185.18338962
_cell_formula_units_Z   1
loop_
 _symmetry_equiv_pos_site_id
 _symmetry_equiv_pos_as_xyz
  1  'x, y, z'
loop_
 _atom_site_type_symbol
 _atom_site_label
 _atom_site_symmetry_multiplicity
 _atom_site_fract_x
 _atom_site_fract_y
 _atom_site_fract_z
 _atom_site_occupancy
  Hf  Hf0  1  0.748487  0.993203  0.500000  1
  Hf  Hf1  1  0.244716  0.251513  0.500000  1
  Hf  Hf2  1  0.006797  0.755284  0.500000  1
  Hf  Hf3  1  0.005758  0.397021  0.000000  1
  Hf  Hf4  1  0.602979  0.608737  0.000000  1
  Hf  Hf5  1  0.391263  0.994242  0.000000  1
  Al  Al6  1  0.333333  0.666667  0.500000  1
  Si  Si7  1  0.000000  0.000000  0.000000  1
  Sb  Sb8  1  0.666667  0.333333  0.500000  1
