# generated using pymatgen
data_ErTh2AlIn2Pt3
_symmetry_space_group_name_H-M   'P 1'
_cell_length_a   7.60001171
_cell_length_b   7.57991618
_cell_length_c   4.07877500
_cell_angle_alpha   90.00000000
_cell_angle_beta   90.00000000
_cell_angle_gamma   120.78012256
_symmetry_Int_Tables_number   1
_chemical_formula_structural   ErTh2AlIn2Pt3
_chemical_formula_sum   'Er1 Th2 Al1 In2 Pt3'
_cell_volume   201.86967407
_cell_formula_units_Z   1
loop_
 _symmetry_equiv_pos_site_id
 _symmetry_equiv_pos_as_xyz
  1  'x, y, z'
loop_
 _atom_site_type_symbol
 _atom_site_label
 _atom_site_symmetry_multiplicity
 _atom_site_fract_x
 _atom_site_fract_y
 _atom_site_fract_z
 _atom_site_occupancy
  Er  Er0  1  0.993411  0.589695  0.500000  1
  Th  Th1  1  0.586375  0.996821  0.500000  1
  Th  Th2  1  0.423003  0.421530  0.500000  1
  Al  Al3  1  0.764536  0.754201  0.000000  1
  In  In4  1  0.000426  0.257492  0.000000  1
  In  In5  1  0.239657  0.989029  0.000000  1
  Pt  Pt6  1  0.354353  0.670493  0.000000  1
  Pt  Pt7  1  0.667680  0.347382  0.000000  1
  Pt  Pt8  1  0.970559  0.973356  0.500000  1
