# generated using pymatgen
data_La2AlSnI2
_symmetry_space_group_name_H-M   'P 1'
_cell_length_a   4.53476500
_cell_length_b   4.53476552
_cell_length_c   12.31871000
_cell_angle_alpha   90.00000000
_cell_angle_beta   90.00000000
_cell_angle_gamma   120.00000351
_symmetry_Int_Tables_number   1
_chemical_formula_structural   La2AlSnI2
_chemical_formula_sum   'La2 Al1 Sn1 I2'
_cell_volume   219.38426207
_cell_formula_units_Z   1
loop_
 _symmetry_equiv_pos_site_id
 _symmetry_equiv_pos_as_xyz
  1  'x, y, z'
loop_
 _atom_site_type_symbol
 _atom_site_label
 _atom_site_symmetry_multiplicity
 _atom_site_fract_x
 _atom_site_fract_y
 _atom_site_fract_z
 _atom_site_occupancy
  La  La0  1  0.000000  0.000000  0.182521  1
  La  La1  1  0.000000  0.000000  0.820565  1
  Al  Al2  1  0.333333  0.666667  0.975280  1
  Sn  Sn3  1  0.666667  0.333333  0.019405  1
  I  I4  1  0.666667  0.333333  0.656480  1
  I  I5  1  0.333333  0.666667  0.345750  1
