# generated using pymatgen
data_Y4AlGa2Si
_symmetry_space_group_name_H-M   'P 1'
_cell_length_a   4.00181600
_cell_length_b   4.36533900
_cell_length_c   10.90220700
_cell_angle_alpha   90.00000000
_cell_angle_beta   90.00000000
_cell_angle_gamma   90.00000000
_symmetry_Int_Tables_number   1
_chemical_formula_structural   Y4AlGa2Si
_chemical_formula_sum   'Y4 Al1 Ga2 Si1'
_cell_volume   190.45374437
_cell_formula_units_Z   1
loop_
 _symmetry_equiv_pos_site_id
 _symmetry_equiv_pos_as_xyz
  1  'x, y, z'
loop_
 _atom_site_type_symbol
 _atom_site_label
 _atom_site_symmetry_multiplicity
 _atom_site_fract_x
 _atom_site_fract_y
 _atom_site_fract_z
 _atom_site_occupancy
  Y  Y0  1  0.000000  0.000000  0.360271  1
  Y  Y1  1  0.000000  0.500000  0.859467  1
  Y  Y2  1  0.500000  0.500000  0.140481  1
  Y  Y3  1  0.500000  0.000000  0.642693  1
  Al  Al4  1  0.000000  0.000000  0.069328  1
  Ga  Ga5  1  0.000000  0.500000  0.580318  1
  Ga  Ga6  1  0.500000  0.500000  0.423928  1
  Si  Si7  1  0.500000  0.000000  0.923511  1
