# generated using pymatgen
data_TmLu3(AlTc3)2
_symmetry_space_group_name_H-M   'P 1'
_cell_length_a   5.31095400
_cell_length_b   5.31095529
_cell_length_c   8.88900600
_cell_angle_alpha   90.00000000
_cell_angle_beta   90.00000000
_cell_angle_gamma   120.00000439
_symmetry_Int_Tables_number   1
_chemical_formula_structural   TmLu3(AlTc3)2
_chemical_formula_sum   'Tm1 Lu3 Al2 Tc6'
_cell_volume   217.13458221
_cell_formula_units_Z   1
loop_
 _symmetry_equiv_pos_site_id
 _symmetry_equiv_pos_as_xyz
  1  'x, y, z'
loop_
 _atom_site_type_symbol
 _atom_site_label
 _atom_site_symmetry_multiplicity
 _atom_site_fract_x
 _atom_site_fract_y
 _atom_site_fract_z
 _atom_site_occupancy
  Tm  Tm0  1  0.333333  0.666667  0.068100  1
  Lu  Lu1  1  0.333333  0.666667  0.432132  1
  Lu  Lu2  1  0.666667  0.333333  0.568355  1
  Lu  Lu3  1  0.666667  0.333333  0.931431  1
  Al  Al4  1  0.000000  0.000000  0.499951  1
  Al  Al5  1  0.000000  0.000000  0.999836  1
  Tc  Tc6  1  0.829573  0.170427  0.250505  1
  Tc  Tc7  1  0.829573  0.659147  0.250505  1
  Tc  Tc8  1  0.340853  0.170427  0.250505  1
  Tc  Tc9  1  0.170399  0.829601  0.749560  1
  Tc  Tc10  1  0.170399  0.340797  0.749560  1
  Tc  Tc11  1  0.659203  0.829601  0.749560  1
