# generated using pymatgen
data_HoThAlRu2
_symmetry_space_group_name_H-M   'P 1'
_cell_length_a   5.75365294
_cell_length_b   5.75365161
_cell_length_c   7.07191636
_cell_angle_alpha   87.50882678
_cell_angle_beta   92.49117127
_cell_angle_gamma   117.21340783
_symmetry_Int_Tables_number   1
_chemical_formula_structural   HoThAlRu2
_chemical_formula_sum   'Ho2 Th2 Al2 Ru4'
_cell_volume   207.92823364
_cell_formula_units_Z   2
loop_
 _symmetry_equiv_pos_site_id
 _symmetry_equiv_pos_as_xyz
  1  'x, y, z'
loop_
 _atom_site_type_symbol
 _atom_site_label
 _atom_site_symmetry_multiplicity
 _atom_site_fract_x
 _atom_site_fract_y
 _atom_site_fract_z
 _atom_site_occupancy
  Ho  Ho0  1  0.342841  0.657159  0.084346  1
  Ho  Ho1  1  0.657159  0.342841  0.915654  1
  Th  Th2  1  0.166393  0.833607  0.596199  1
  Th  Th3  1  0.833607  0.166393  0.403801  1
  Al  Al4  1  0.000000  0.000000  0.000000  1
  Al  Al5  1  0.500000  0.500000  0.500000  1
  Ru  Ru6  1  0.861264  0.644475  0.259857  1
  Ru  Ru7  1  0.644475  0.861264  0.740143  1
  Ru  Ru8  1  0.138736  0.355525  0.740143  1
  Ru  Ru9  1  0.355525  0.138736  0.259857  1
