# generated using pymatgen
data_Ho2AlOs2Ru
_symmetry_space_group_name_H-M   'P 1'
_cell_length_a   5.31720038
_cell_length_b   5.27476150
_cell_length_c   8.90126300
_cell_angle_alpha   90.00000000
_cell_angle_beta   90.00000000
_cell_angle_gamma   119.73634651
_symmetry_Int_Tables_number   1
_chemical_formula_structural   Ho2AlOs2Ru
_chemical_formula_sum   'Ho4 Al2 Os4 Ru2'
_cell_volume   216.77830217
_cell_formula_units_Z   2
loop_
 _symmetry_equiv_pos_site_id
 _symmetry_equiv_pos_as_xyz
  1  'x, y, z'
loop_
 _atom_site_type_symbol
 _atom_site_label
 _atom_site_symmetry_multiplicity
 _atom_site_fract_x
 _atom_site_fract_y
 _atom_site_fract_z
 _atom_site_occupancy
  Ho  Ho0  1  0.332281  0.668036  0.062447  1
  Ho  Ho1  1  0.667719  0.335753  0.562447  1
  Ho  Ho2  1  0.332281  0.668036  0.437553  1
  Ho  Ho3  1  0.667719  0.335753  0.937553  1
  Al  Al4  1  0.836713  0.167945  0.250000  1
  Al  Al5  1  0.163287  0.331233  0.750000  1
  Os  Os6  1  0.826999  0.659545  0.250000  1
  Os  Os7  1  0.173001  0.832548  0.750000  1
  Os  Os8  1  0.647804  0.831278  0.750000  1
  Os  Os9  1  0.352196  0.183472  0.250000  1
  Ru  Ru10  1  0.000000  0.993202  0.500000  1
  Ru  Ru11  1  0.000000  0.993202  0.000000  1
