# generated using pymatgen
data_Ho12AlNi4Pd
_symmetry_space_group_name_H-M   'P 1'
_cell_length_a   8.26122531
_cell_length_b   8.25850909
_cell_length_c   8.26122618
_cell_angle_alpha   111.73604176
_cell_angle_beta   109.98302202
_cell_angle_gamma   106.74685324
_symmetry_Int_Tables_number   1
_chemical_formula_structural   Ho12AlNi4Pd
_chemical_formula_sum   'Ho12 Al1 Ni4 Pd1'
_cell_volume   432.96826818
_cell_formula_units_Z   1
loop_
 _symmetry_equiv_pos_site_id
 _symmetry_equiv_pos_as_xyz
  1  'x, y, z'
loop_
 _atom_site_type_symbol
 _atom_site_label
 _atom_site_symmetry_multiplicity
 _atom_site_fract_x
 _atom_site_fract_y
 _atom_site_fract_z
 _atom_site_occupancy
  Ho  Ho0  1  0.413329  0.220500  0.192858  1
  Ho  Ho1  1  0.586671  0.779500  0.807142  1
  Ho  Ho2  1  0.027641  0.220500  0.807170  1
  Ho  Ho3  1  0.972359  0.779500  0.192830  1
  Ho  Ho4  1  0.183653  0.295530  0.479256  1
  Ho  Ho5  1  0.816347  0.704470  0.520744  1
  Ho  Ho6  1  0.183727  0.704470  0.888123  1
  Ho  Ho7  1  0.816273  0.295530  0.111877  1
  Ho  Ho8  1  0.323350  0.627504  0.304156  1
  Ho  Ho9  1  0.676650  0.372496  0.695844  1
  Ho  Ho10  1  0.323252  0.019040  0.695788  1
  Ho  Ho11  1  0.676748  0.980960  0.304212  1
  Al  Al12  1  0.500000  0.500000  0.000000  1
  Ni  Ni13  1  0.361834  0.000000  0.361834  1
  Ni  Ni14  1  0.638166  0.000000  0.638166  1
  Ni  Ni15  1  0.125679  0.625341  0.499662  1
  Ni  Ni16  1  0.874321  0.374659  0.500338  1
  Pd  Pd17  1  0.000000  0.000000  0.000000  1
