# generated using pymatgen
data_Dy3HoHf3AlPt4
_symmetry_space_group_name_H-M   'P 1'
_cell_length_a   4.57324000
_cell_length_b   7.08762473
_cell_length_c   8.15470300
_cell_angle_alpha   87.03796712
_cell_angle_beta   90.00000000
_cell_angle_gamma   90.00000000
_symmetry_Int_Tables_number   1
_chemical_formula_structural   Dy3HoHf3AlPt4
_chemical_formula_sum   'Dy3 Ho1 Hf3 Al1 Pt4'
_cell_volume   263.96858817
_cell_formula_units_Z   1
loop_
 _symmetry_equiv_pos_site_id
 _symmetry_equiv_pos_as_xyz
  1  'x, y, z'
loop_
 _atom_site_type_symbol
 _atom_site_label
 _atom_site_symmetry_multiplicity
 _atom_site_fract_x
 _atom_site_fract_y
 _atom_site_fract_z
 _atom_site_occupancy
  Dy  Dy0  1  0.750000  0.517165  0.815131  1
  Dy  Dy1  1  0.750000  0.039440  0.671187  1
  Dy  Dy2  1  0.250000  0.988234  0.337265  1
  Ho  Ho3  1  0.250000  0.472109  0.186937  1
  Hf  Hf4  1  0.250000  0.855534  0.923778  1
  Hf  Hf5  1  0.750000  0.137941  0.070707  1
  Hf  Hf6  1  0.750000  0.640396  0.435359  1
  Al  Al7  1  0.250000  0.358524  0.572078  1
  Pt  Pt8  1  0.250000  0.725730  0.610073  1
  Pt  Pt9  1  0.750000  0.270479  0.381115  1
  Pt  Pt10  1  0.750000  0.764824  0.102306  1
  Pt  Pt11  1  0.250000  0.229625  0.894065  1
