# generated using pymatgen
data_Th3Al3NiOs2
_symmetry_space_group_name_H-M   'P 1'
_cell_length_a   7.05606900
_cell_length_b   7.05606875
_cell_length_c   4.20888700
_cell_angle_alpha   90.00000000
_cell_angle_beta   90.00000000
_cell_angle_gamma   119.99999650
_symmetry_Int_Tables_number   1
_chemical_formula_structural   Th3Al3NiOs2
_chemical_formula_sum   'Th3 Al3 Ni1 Os2'
_cell_volume   181.47781237
_cell_formula_units_Z   1
loop_
 _symmetry_equiv_pos_site_id
 _symmetry_equiv_pos_as_xyz
  1  'x, y, z'
loop_
 _atom_site_type_symbol
 _atom_site_label
 _atom_site_symmetry_multiplicity
 _atom_site_fract_x
 _atom_site_fract_y
 _atom_site_fract_z
 _atom_site_occupancy
  Th  Th0  1  0.998730  0.419617  0.500000  1
  Th  Th1  1  0.580383  0.579113  0.500000  1
  Th  Th2  1  0.420887  0.001270  0.500000  1
  Al  Al3  1  0.002838  0.772485  0.000000  1
  Al  Al4  1  0.227515  0.230353  0.000000  1
  Al  Al5  1  0.769647  0.997162  0.000000  1
  Ni  Ni6  1  0.666667  0.333333  0.000000  1
  Os  Os7  1  0.333333  0.666667  0.000000  1
  Os  Os8  1  0.000000  0.000000  0.500000  1
