# generated using pymatgen
data_NbAl2Ni2Pt6Rh
_symmetry_space_group_name_H-M   'P 1'
_cell_length_a   3.91363000
_cell_length_b   3.91363000
_cell_length_c   11.30985300
_cell_angle_alpha   90.00000000
_cell_angle_beta   90.00000000
_cell_angle_gamma   90.00000000
_symmetry_Int_Tables_number   1
_chemical_formula_structural   NbAl2Ni2Pt6Rh
_chemical_formula_sum   'Nb1 Al2 Ni2 Pt6 Rh1'
_cell_volume   173.22736095
_cell_formula_units_Z   1
loop_
 _symmetry_equiv_pos_site_id
 _symmetry_equiv_pos_as_xyz
  1  'x, y, z'
loop_
 _atom_site_type_symbol
 _atom_site_label
 _atom_site_symmetry_multiplicity
 _atom_site_fract_x
 _atom_site_fract_y
 _atom_site_fract_z
 _atom_site_occupancy
  Nb  Nb0  1  0.000000  0.000000  0.000000  1
  Al  Al1  1  0.000000  0.000000  0.341477  1
  Al  Al2  1  0.000000  0.000000  0.658523  1
  Ni  Ni3  1  0.500000  0.500000  0.339327  1
  Ni  Ni4  1  0.500000  0.500000  0.660673  1
  Pt  Pt5  1  0.500000  0.000000  0.176933  1
  Pt  Pt6  1  0.500000  0.000000  0.500000  1
  Pt  Pt7  1  0.500000  0.000000  0.823067  1
  Pt  Pt8  1  0.000000  0.500000  0.176933  1
  Pt  Pt9  1  0.000000  0.500000  0.500000  1
  Pt  Pt10  1  0.000000  0.500000  0.823067  1
  Rh  Rh11  1  0.500000  0.500000  0.000000  1
