# generated using pymatgen
data_Er5AlBiPb
_symmetry_space_group_name_H-M   'P 1'
_cell_length_a   8.82082200
_cell_length_b   8.76417711
_cell_length_c   6.49362000
_cell_angle_alpha   90.00000000
_cell_angle_beta   90.00000000
_cell_angle_gamma   119.78780506
_symmetry_Int_Tables_number   1
_chemical_formula_structural   Er5AlBiPb
_chemical_formula_sum   'Er10 Al2 Bi2 Pb2'
_cell_volume   435.67471557
_cell_formula_units_Z   2
loop_
 _symmetry_equiv_pos_site_id
 _symmetry_equiv_pos_as_xyz
  1  'x, y, z'
loop_
 _atom_site_type_symbol
 _atom_site_label
 _atom_site_symmetry_multiplicity
 _atom_site_fract_x
 _atom_site_fract_y
 _atom_site_fract_z
 _atom_site_occupancy
  Er  Er0  1  0.686696  0.344354  0.002427  1
  Er  Er1  1  0.313304  0.657659  0.002427  1
  Er  Er2  1  0.313304  0.657659  0.497573  1
  Er  Er3  1  0.686696  0.344354  0.497573  1
  Er  Er4  1  0.773715  0.758712  0.750000  1
  Er  Er5  1  0.226285  0.984995  0.750000  1
  Er  Er6  1  0.000000  0.240901  0.750000  1
  Er  Er7  1  0.229257  0.240767  0.250000  1
  Er  Er8  1  0.770743  0.011510  0.250000  1
  Er  Er9  1  0.000000  0.760294  0.250000  1
  Al  Al10  1  0.000000  0.596998  0.750000  1
  Al  Al11  1  0.000000  0.400165  0.250000  1
  Bi  Bi12  1  0.396860  0.390525  0.750000  1
  Bi  Bi13  1  0.603140  0.993665  0.750000  1
  Pb  Pb14  1  0.602411  0.609926  0.250000  1
  Pb  Pb15  1  0.397589  0.007516  0.250000  1
