# generated using pymatgen
data_NdSmAlSi
_symmetry_space_group_name_H-M   'P 1'
_cell_length_a   6.04122388
_cell_length_b   6.04122370
_cell_length_c   4.07589000
_cell_angle_alpha   90.00000000
_cell_angle_beta   90.00000000
_cell_angle_gamma   136.90420591
_symmetry_Int_Tables_number   1
_chemical_formula_structural   NdSmAlSi
_chemical_formula_sum   'Nd1 Sm1 Al1 Si1'
_cell_volume   101.63258784
_cell_formula_units_Z   1
loop_
 _symmetry_equiv_pos_site_id
 _symmetry_equiv_pos_as_xyz
  1  'x, y, z'
loop_
 _atom_site_type_symbol
 _atom_site_label
 _atom_site_symmetry_multiplicity
 _atom_site_fract_x
 _atom_site_fract_y
 _atom_site_fract_z
 _atom_site_occupancy
  Nd  Nd0  1  0.644033  0.355967  0.500000  1
  Sm  Sm1  1  0.359301  0.640699  0.000000  1
  Al  Al2  1  0.067516  0.932484  0.000000  1
  Si  Si3  1  0.929149  0.070851  0.500000  1
