# generated using pymatgen
data_Tb2AlIr3
_symmetry_space_group_name_H-M   'P 1'
_cell_length_a   5.14895498
_cell_length_b   5.14895478
_cell_length_c   5.14895604
_cell_angle_alpha   66.06343435
_cell_angle_beta   66.06343954
_cell_angle_gamma   66.06343396
_symmetry_Int_Tables_number   1
_chemical_formula_structural   Tb2AlIr3
_chemical_formula_sum   'Tb2 Al1 Ir3'
_cell_volume   109.18375315
_cell_formula_units_Z   1
loop_
 _symmetry_equiv_pos_site_id
 _symmetry_equiv_pos_as_xyz
  1  'x, y, z'
loop_
 _atom_site_type_symbol
 _atom_site_label
 _atom_site_symmetry_multiplicity
 _atom_site_fract_x
 _atom_site_fract_y
 _atom_site_fract_z
 _atom_site_occupancy
  Tb  Tb0  1  0.627163  0.627163  0.627163  1
  Tb  Tb1  1  0.372837  0.372837  0.372837  1
  Al  Al2  1  0.000000  0.000000  0.000000  1
  Ir  Ir3  1  0.000000  0.500000  0.000000  1
  Ir  Ir4  1  0.500000  0.000000  0.000000  1
  Ir  Ir5  1  0.000000  0.000000  0.500000  1
