# generated using pymatgen
data_TbEr3AlPt
_symmetry_space_group_name_H-M   'P 1'
_cell_length_a   9.54477967
_cell_length_b   9.54732220
_cell_length_c   9.54732234
_cell_angle_alpha   59.98237967
_cell_angle_beta   60.00880254
_cell_angle_gamma   60.00880188
_symmetry_Int_Tables_number   1
_chemical_formula_structural   TbEr3AlPt
_chemical_formula_sum   'Tb4 Er12 Al4 Pt4'
_cell_volume   615.19664897
_cell_formula_units_Z   4
loop_
 _symmetry_equiv_pos_site_id
 _symmetry_equiv_pos_as_xyz
  1  'x, y, z'
loop_
 _atom_site_type_symbol
 _atom_site_label
 _atom_site_symmetry_multiplicity
 _atom_site_fract_x
 _atom_site_fract_y
 _atom_site_fract_z
 _atom_site_occupancy
  Tb  Tb0  1  0.564253  0.935747  0.564253  1
  Tb  Tb1  1  0.935747  0.564253  0.935747  1
  Tb  Tb2  1  0.564253  0.564253  0.935747  1
  Tb  Tb3  1  0.935747  0.935747  0.564253  1
  Er  Er4  1  0.353747  0.353865  0.353865  1
  Er  Er5  1  0.353865  0.353747  0.938523  1
  Er  Er6  1  0.353865  0.938523  0.353747  1
  Er  Er7  1  0.938523  0.353865  0.353865  1
  Er  Er8  1  0.806569  0.193431  0.193431  1
  Er  Er9  1  0.193431  0.806569  0.806569  1
  Er  Er10  1  0.193358  0.806642  0.193358  1
  Er  Er11  1  0.806642  0.193358  0.806642  1
  Er  Er12  1  0.193358  0.193358  0.806642  1
  Er  Er13  1  0.806642  0.806642  0.193358  1
  Er  Er14  1  0.936258  0.563742  0.563742  1
  Er  Er15  1  0.563742  0.936258  0.936258  1
  Al  Al16  1  0.577350  0.577376  0.577376  1
  Al  Al17  1  0.577376  0.577350  0.267899  1
  Al  Al18  1  0.577376  0.267899  0.577350  1
  Al  Al19  1  0.267899  0.577376  0.577376  1
  Pt  Pt20  1  0.143516  0.143124  0.143124  1
  Pt  Pt21  1  0.143124  0.143516  0.570237  1
  Pt  Pt22  1  0.143124  0.570237  0.143516  1
  Pt  Pt23  1  0.570237  0.143124  0.143124  1
