# generated using pymatgen
data_Tb8AlPI12
_symmetry_space_group_name_H-M   'P 1'
_cell_length_a   4.20515200
_cell_length_b   14.10478808
_cell_length_c   14.85668596
_cell_angle_alpha   89.84931557
_cell_angle_beta   90.00000000
_cell_angle_gamma   90.00000000
_symmetry_Int_Tables_number   1
_chemical_formula_structural   Tb8AlPI12
_chemical_formula_sum   'Tb8 Al1 P1 I12'
_cell_volume   881.18826619
_cell_formula_units_Z   1
loop_
 _symmetry_equiv_pos_site_id
 _symmetry_equiv_pos_as_xyz
  1  'x, y, z'
loop_
 _atom_site_type_symbol
 _atom_site_label
 _atom_site_symmetry_multiplicity
 _atom_site_fract_x
 _atom_site_fract_y
 _atom_site_fract_z
 _atom_site_occupancy
  Tb  Tb0  1  0.500000  0.118917  0.342110  1
  Tb  Tb1  1  0.500000  0.881083  0.657890  1
  Tb  Tb2  1  0.500000  0.611189  0.147974  1
  Tb  Tb3  1  0.500000  0.388811  0.852026  1
  Tb  Tb4  1  0.000000  0.118404  0.579667  1
  Tb  Tb5  1  0.000000  0.881596  0.420333  1
  Tb  Tb6  1  0.000000  0.605200  0.929446  1
  Tb  Tb7  1  0.000000  0.394800  0.070554  1
  Al  Al8  1  0.500000  0.000000  0.500000  1
  P  P9  1  0.500000  0.500000  0.000000  1
  I  I10  1  0.500000  0.251049  0.160354  1
  I  I11  1  0.500000  0.748951  0.839646  1
  I  I12  1  0.500000  0.743471  0.332905  1
  I  I13  1  0.500000  0.256529  0.667095  1
  I  I14  1  0.000000  0.262579  0.415099  1
  I  I15  1  0.000000  0.737421  0.584901  1
  I  I16  1  0.000000  0.756262  0.083905  1
  I  I17  1  0.000000  0.243738  0.916095  1
  I  I18  1  0.000000  0.999414  0.236890  1
  I  I19  1  0.000000  0.000586  0.763110  1
  I  I20  1  0.000000  0.499414  0.256683  1
  I  I21  1  0.000000  0.500586  0.743317  1
