# generated using pymatgen
data_Cs2ZrCd3Sb4
_symmetry_space_group_name_H-M   'P 1'
_cell_length_a   8.56096000
_cell_length_b   8.56096024
_cell_length_c   6.57049600
_cell_angle_alpha   90.00000000
_cell_angle_beta   90.00000000
_cell_angle_gamma   134.82717575
_symmetry_Int_Tables_number   1
_chemical_formula_structural   Cs2ZrCd3Sb4
_chemical_formula_sum   'Cs2 Zr1 Cd3 Sb4'
_cell_volume   341.53415918
_cell_formula_units_Z   1
loop_
 _symmetry_equiv_pos_site_id
 _symmetry_equiv_pos_as_xyz
  1  'x, y, z'
loop_
 _atom_site_type_symbol
 _atom_site_label
 _atom_site_symmetry_multiplicity
 _atom_site_fract_x
 _atom_site_fract_y
 _atom_site_fract_z
 _atom_site_occupancy
  Cs  Cs0  1  0.500000  0.000000  0.256977  1
  Cs  Cs1  1  0.000000  0.500000  0.743023  1
  Zr  Zr2  1  0.000000  0.000000  0.000000  1
  Cd  Cd3  1  0.500000  0.500000  0.500000  1
  Cd  Cd4  1  0.500000  0.500000  0.000000  1
  Cd  Cd5  1  0.000000  0.000000  0.500000  1
  Sb  Sb6  1  0.646711  0.869862  0.759076  1
  Sb  Sb7  1  0.130138  0.353289  0.240924  1
  Sb  Sb8  1  0.869862  0.646711  0.240924  1
  Sb  Sb9  1  0.353289  0.130138  0.759076  1
