# generated using pymatgen
data_Cs5As6
_symmetry_space_group_name_H-M   'P 1'
_cell_length_a   17.61136546
_cell_length_b   17.61136606
_cell_length_c   5.67089400
_cell_angle_alpha   90.00000000
_cell_angle_beta   90.00000000
_cell_angle_gamma   165.46656418
_symmetry_Int_Tables_number   1
_chemical_formula_structural   Cs5As6
_chemical_formula_sum   'Cs5 As6'
_cell_volume   441.38344880
_cell_formula_units_Z   1
loop_
 _symmetry_equiv_pos_site_id
 _symmetry_equiv_pos_as_xyz
  1  'x, y, z'
loop_
 _atom_site_type_symbol
 _atom_site_label
 _atom_site_symmetry_multiplicity
 _atom_site_fract_x
 _atom_site_fract_y
 _atom_site_fract_z
 _atom_site_occupancy
  Cs  Cs0  1  0.000000  0.000000  0.000000  1
  Cs  Cs1  1  0.617110  0.382888  0.000000  1
  Cs  Cs2  1  0.382888  0.617110  0.000000  1
  Cs  Cs3  1  0.805787  0.194211  0.500001  1
  Cs  Cs4  1  0.194211  0.805787  0.500001  1
  As  As5  1  0.734730  0.265268  0.000000  1
  As  As6  1  0.265268  0.734730  0.000000  1
  As  As7  1  0.922593  0.077406  0.500001  1
  As  As8  1  0.549248  0.450750  0.500001  1
  As  As9  1  0.450750  0.549248  0.500001  1
  As  As10  1  0.077406  0.922593  0.500001  1
