# generated using pymatgen
data_CsTb(TcP)4
_symmetry_space_group_name_H-M   'P 1'
_cell_length_a   4.15640400
_cell_length_b   4.15640400
_cell_length_c   11.79353700
_cell_angle_alpha   90.00000000
_cell_angle_beta   90.00000000
_cell_angle_gamma   90.00000000
_symmetry_Int_Tables_number   1
_chemical_formula_structural   CsTb(TcP)4
_chemical_formula_sum   'Cs1 Tb1 Tc4 P4'
_cell_volume   203.74153888
_cell_formula_units_Z   1
loop_
 _symmetry_equiv_pos_site_id
 _symmetry_equiv_pos_as_xyz
  1  'x, y, z'
loop_
 _atom_site_type_symbol
 _atom_site_label
 _atom_site_symmetry_multiplicity
 _atom_site_fract_x
 _atom_site_fract_y
 _atom_site_fract_z
 _atom_site_occupancy
  Cs  Cs0  1  0.500000  0.500000  0.500000  1
  Tb  Tb1  1  0.000000  0.000000  0.000000  1
  Tc  Tc2  1  0.500000  0.000000  0.799670  1
  Tc  Tc3  1  0.000000  0.500000  0.799670  1
  Tc  Tc4  1  0.500000  0.000000  0.200330  1
  Tc  Tc5  1  0.000000  0.500000  0.200330  1
  P  P6  1  0.000000  0.000000  0.704273  1
  P  P7  1  0.000000  0.000000  0.295727  1
  P  P8  1  0.500000  0.500000  0.896391  1
  P  P9  1  0.500000  0.500000  0.103609  1
