# generated using pymatgen
data_Cs2Li2ZrTe4
_symmetry_space_group_name_H-M   'P 1'
_cell_length_a   8.35978227
_cell_length_b   8.35978153
_cell_length_c   6.78012800
_cell_angle_alpha   90.00000000
_cell_angle_beta   90.00000000
_cell_angle_gamma   132.08840631
_symmetry_Int_Tables_number   1
_chemical_formula_structural   Cs2Li2ZrTe4
_chemical_formula_sum   'Cs2 Li2 Zr1 Te4'
_cell_volume   351.63892226
_cell_formula_units_Z   1
loop_
 _symmetry_equiv_pos_site_id
 _symmetry_equiv_pos_as_xyz
  1  'x, y, z'
loop_
 _atom_site_type_symbol
 _atom_site_label
 _atom_site_symmetry_multiplicity
 _atom_site_fract_x
 _atom_site_fract_y
 _atom_site_fract_z
 _atom_site_occupancy
  Cs  Cs0  1  0.500000  0.000000  0.258651  1
  Cs  Cs1  1  0.000000  0.500000  0.741349  1
  Li  Li2  1  0.000000  0.000000  0.500000  1
  Li  Li3  1  0.500000  0.500000  0.000000  1
  Zr  Zr4  1  0.000000  0.000000  0.000000  1
  Te  Te5  1  0.863469  0.661160  0.236717  1
  Te  Te6  1  0.136531  0.338840  0.236717  1
  Te  Te7  1  0.661160  0.863469  0.763283  1
  Te  Te8  1  0.338840  0.136531  0.763283  1
