# generated using pymatgen
data_CsPr(ErS2)2
_symmetry_space_group_name_H-M   'P 1'
_cell_length_a   3.97596300
_cell_length_b   3.97596315
_cell_length_c   14.56948400
_cell_angle_alpha   90.00000000
_cell_angle_beta   90.00000000
_cell_angle_gamma   119.99997380
_symmetry_Int_Tables_number   1
_chemical_formula_structural   CsPr(ErS2)2
_chemical_formula_sum   'Cs1 Pr1 Er2 S4'
_cell_volume   199.46173936
_cell_formula_units_Z   1
loop_
 _symmetry_equiv_pos_site_id
 _symmetry_equiv_pos_as_xyz
  1  'x, y, z'
loop_
 _atom_site_type_symbol
 _atom_site_label
 _atom_site_symmetry_multiplicity
 _atom_site_fract_x
 _atom_site_fract_y
 _atom_site_fract_z
 _atom_site_occupancy
  Cs  Cs0  1  0.666667  0.333333  0.750000  1
  Pr  Pr1  1  0.333333  0.666667  0.250000  1
  Er  Er2  1  0.000000  0.000000  0.022480  1
  Er  Er3  1  0.000000  0.000000  0.477520  1
  S  S4  1  0.333333  0.666667  0.576924  1
  S  S5  1  0.666667  0.333333  0.125550  1
  S  S6  1  0.666667  0.333333  0.374450  1
  S  S7  1  0.333333  0.666667  0.923076  1
