# generated using pymatgen
data_Cs3Ho7S12
_symmetry_space_group_name_H-M   'P 1'
_cell_length_a   3.97521200
_cell_length_b   12.30540800
_cell_length_c   25.16729700
_cell_angle_alpha   90.00000000
_cell_angle_beta   90.00000000
_cell_angle_gamma   90.00000000
_symmetry_Int_Tables_number   1
_chemical_formula_structural   Cs3Ho7S12
_chemical_formula_sum   'Cs6 Ho14 S24'
_cell_volume   1231.09874002
_cell_formula_units_Z   2
loop_
 _symmetry_equiv_pos_site_id
 _symmetry_equiv_pos_as_xyz
  1  'x, y, z'
loop_
 _atom_site_type_symbol
 _atom_site_label
 _atom_site_symmetry_multiplicity
 _atom_site_fract_x
 _atom_site_fract_y
 _atom_site_fract_z
 _atom_site_occupancy
  Cs  Cs0  1  0.500000  0.522062  0.128615  1
  Cs  Cs1  1  0.500000  0.968097  0.866273  1
  Cs  Cs2  1  0.000000  0.031903  0.366273  1
  Cs  Cs3  1  0.000000  0.477938  0.628615  1
  Cs  Cs4  1  0.500000  0.804233  0.473701  1
  Cs  Cs5  1  0.000000  0.195767  0.973701  1
  Ho  Ho6  1  0.500000  0.463403  0.416179  1
  Ho  Ho7  1  0.500000  0.036644  0.585636  1
  Ho  Ho8  1  0.000000  0.963356  0.085636  1
  Ho  Ho9  1  0.000000  0.536597  0.916179  1
  Ho  Ho10  1  0.500000  0.666135  0.788926  1
  Ho  Ho11  1  0.500000  0.833204  0.211050  1
  Ho  Ho12  1  0.000000  0.166796  0.711050  1
  Ho  Ho13  1  0.000000  0.333865  0.288926  1
  Ho  Ho14  1  0.000000  0.249335  0.499970  1
  Ho  Ho15  1  0.500000  0.750665  0.999970  1
  Ho  Ho16  1  0.500000  0.338447  0.815225  1
  Ho  Ho17  1  0.500000  0.164185  0.183619  1
  Ho  Ho18  1  0.000000  0.835815  0.683619  1
  Ho  Ho19  1  0.000000  0.661553  0.315225  1
  S  S20  1  0.500000  0.684060  0.896886  1
  S  S21  1  0.500000  0.815480  0.103422  1
  S  S22  1  0.000000  0.184520  0.603422  1
  S  S23  1  0.000000  0.315940  0.396886  1
  S  S24  1  0.500000  0.495720  0.303334  1
  S  S25  1  0.500000  0.004198  0.697175  1
  S  S26  1  0.000000  0.995802  0.197175  1
  S  S27  1  0.000000  0.504280  0.803334  1
  S  S28  1  0.500000  0.387337  0.919536  1
  S  S29  1  0.500000  0.113652  0.079818  1
  S  S30  1  0.000000  0.886348  0.579818  1
  S  S31  1  0.000000  0.612663  0.419536  1
  S  S32  1  0.500000  0.310533  0.710375  1
  S  S33  1  0.500000  0.189709  0.289125  1
  S  S34  1  0.000000  0.810291  0.789125  1
  S  S35  1  0.000000  0.689467  0.210375  1
  S  S36  1  0.500000  0.690348  0.681777  1
  S  S37  1  0.500000  0.809509  0.320044  1
  S  S38  1  0.000000  0.190491  0.820044  1
  S  S39  1  0.000000  0.309652  0.181777  1
  S  S40  1  0.500000  0.397376  0.516262  1
  S  S41  1  0.500000  0.097476  0.483461  1
  S  S42  1  0.000000  0.902524  0.983461  1
  S  S43  1  0.000000  0.602624  0.016262  1
