# generated using pymatgen
data_Cs4ScUBr12
_symmetry_space_group_name_H-M   'P 1'
_cell_length_a   8.04460400
_cell_length_b   8.04460400
_cell_length_c   11.57101800
_cell_angle_alpha   90.00000000
_cell_angle_beta   90.00000000
_cell_angle_gamma   90.00000000
_symmetry_Int_Tables_number   1
_chemical_formula_structural   Cs4ScUBr12
_chemical_formula_sum   'Cs4 Sc1 U1 Br12'
_cell_volume   748.82599172
_cell_formula_units_Z   1
loop_
 _symmetry_equiv_pos_site_id
 _symmetry_equiv_pos_as_xyz
  1  'x, y, z'
loop_
 _atom_site_type_symbol
 _atom_site_label
 _atom_site_symmetry_multiplicity
 _atom_site_fract_x
 _atom_site_fract_y
 _atom_site_fract_z
 _atom_site_occupancy
  Cs  Cs0  1  0.500000  0.000000  0.788886  1
  Cs  Cs1  1  0.000000  0.500000  0.211114  1
  Cs  Cs2  1  0.500000  0.000000  0.211114  1
  Cs  Cs3  1  0.000000  0.500000  0.788886  1
  Sc  Sc4  1  0.000000  0.000000  0.000000  1
  U  U5  1  0.500000  0.500000  0.500000  1
  Br  Br6  1  0.000000  0.000000  0.769026  1
  Br  Br7  1  0.500000  0.500000  0.265320  1
  Br  Br8  1  0.737379  0.737379  0.500000  1
  Br  Br9  1  0.236135  0.236135  0.000000  1
  Br  Br10  1  0.737379  0.262621  0.500000  1
  Br  Br11  1  0.236135  0.763865  0.000000  1
  Br  Br12  1  0.000000  0.000000  0.230974  1
  Br  Br13  1  0.500000  0.500000  0.734680  1
  Br  Br14  1  0.262621  0.262621  0.500000  1
  Br  Br15  1  0.763865  0.763865  0.000000  1
  Br  Br16  1  0.262621  0.737379  0.500000  1
  Br  Br17  1  0.763865  0.236135  0.000000  1
