# generated using pymatgen
data_Cs2Mg3ZrAs4
_symmetry_space_group_name_H-M   'P 1'
_cell_length_a   8.23366878
_cell_length_b   8.23366786
_cell_length_c   6.39009500
_cell_angle_alpha   90.00000000
_cell_angle_beta   90.00000000
_cell_angle_gamma   134.32873637
_symmetry_Int_Tables_number   1
_chemical_formula_structural   Cs2Mg3ZrAs4
_chemical_formula_sum   'Cs2 Mg3 Zr1 As4'
_cell_volume   309.89030716
_cell_formula_units_Z   1
loop_
 _symmetry_equiv_pos_site_id
 _symmetry_equiv_pos_as_xyz
  1  'x, y, z'
loop_
 _atom_site_type_symbol
 _atom_site_label
 _atom_site_symmetry_multiplicity
 _atom_site_fract_x
 _atom_site_fract_y
 _atom_site_fract_z
 _atom_site_occupancy
  Cs  Cs0  1  0.500000  0.000000  0.253590  1
  Cs  Cs1  1  0.000000  0.500000  0.746410  1
  Mg  Mg2  1  0.500000  0.500000  0.500000  1
  Mg  Mg3  1  0.500000  0.500000  0.000000  1
  Mg  Mg4  1  0.000000  0.000000  0.500000  1
  Zr  Zr5  1  0.000000  0.000000  0.000000  1
  As  As6  1  0.659971  0.853697  0.757208  1
  As  As7  1  0.146303  0.340029  0.242792  1
  As  As8  1  0.853697  0.659971  0.242792  1
  As  As9  1  0.340029  0.146303  0.757208  1
