# generated using pymatgen
data_CsK2Ag3As2
_symmetry_space_group_name_H-M   'P 1'
_cell_length_a   8.11719138
_cell_length_b   8.11719149
_cell_length_c   8.11719147
_cell_angle_alpha   44.96276448
_cell_angle_beta   44.96276580
_cell_angle_gamma   44.96276516
_symmetry_Int_Tables_number   1
_chemical_formula_structural   CsK2Ag3As2
_chemical_formula_sum   'Cs1 K2 Ag3 As2'
_cell_volume   243.06110020
_cell_formula_units_Z   1
loop_
 _symmetry_equiv_pos_site_id
 _symmetry_equiv_pos_as_xyz
  1  'x, y, z'
loop_
 _atom_site_type_symbol
 _atom_site_label
 _atom_site_symmetry_multiplicity
 _atom_site_fract_x
 _atom_site_fract_y
 _atom_site_fract_z
 _atom_site_occupancy
  Cs  Cs0  1  0.500000  0.500000  0.500000  1
  K  K1  1  0.090561  0.090561  0.090561  1
  K  K2  1  0.909439  0.909439  0.909439  1
  Ag  Ag3  1  0.000000  0.500000  0.500000  1
  Ag  Ag4  1  0.500000  0.500000  0.000000  1
  Ag  Ag5  1  0.500000  0.000000  0.500000  1
  As  As6  1  0.751541  0.751541  0.751541  1
  As  As7  1  0.248459  0.248459  0.248459  1
