# generated using pymatgen
data_Cs3PSe16
_symmetry_space_group_name_H-M   'P 1'
_cell_length_a   12.29757048
_cell_length_b   12.29757124
_cell_length_c   12.29757200
_cell_angle_alpha   59.99999795
_cell_angle_beta   59.99999591
_cell_angle_gamma   60.00000242
_symmetry_Int_Tables_number   1
_chemical_formula_structural   Cs3PSe16
_chemical_formula_sum   'Cs6 P2 Se32'
_cell_volume   1315.05231796
_cell_formula_units_Z   2
loop_
 _symmetry_equiv_pos_site_id
 _symmetry_equiv_pos_as_xyz
  1  'x, y, z'
loop_
 _atom_site_type_symbol
 _atom_site_label
 _atom_site_symmetry_multiplicity
 _atom_site_fract_x
 _atom_site_fract_y
 _atom_site_fract_z
 _atom_site_occupancy
  Cs  Cs0  1  0.375000  0.375000  0.375000  1
  Cs  Cs1  1  0.625000  0.625000  0.625000  1
  Cs  Cs2  1  0.000000  0.000000  0.000000  1
  Cs  Cs3  1  0.000000  0.500000  0.000000  1
  Cs  Cs4  1  0.500000  0.000000  0.000000  1
  Cs  Cs5  1  0.000000  0.000000  0.500000  1
  P  P6  1  0.125000  0.125000  0.125000  1
  P  P7  1  0.875000  0.875000  0.875000  1
  Se  Se8  1  0.049621  0.460872  0.671953  1
  Se  Se9  1  0.671953  0.460872  0.317554  1
  Se  Se10  1  0.671953  0.049621  0.460872  1
  Se  Se11  1  0.049621  0.317554  0.460872  1
  Se  Se12  1  0.317554  0.671953  0.460872  1
  Se  Se13  1  0.460872  0.049621  0.317554  1
  Se  Se14  1  0.199642  0.901075  0.199642  1
  Se  Se15  1  0.199642  0.199642  0.901075  1
  Se  Se16  1  0.901075  0.199642  0.199642  1
  Se  Se17  1  0.199642  0.199642  0.199642  1
  Se  Se18  1  0.800358  0.098926  0.800358  1
  Se  Se19  1  0.800358  0.800358  0.098926  1
  Se  Se20  1  0.098926  0.800358  0.800358  1
  Se  Se21  1  0.800358  0.800358  0.800358  1
  Se  Se22  1  0.328047  0.682446  0.950379  1
  Se  Se23  1  0.950379  0.328047  0.682446  1
  Se  Se24  1  0.682446  0.950379  0.328047  1
  Se  Se25  1  0.539128  0.328047  0.950379  1
  Se  Se26  1  0.682446  0.539128  0.950379  1
  Se  Se27  1  0.539128  0.682446  0.328047  1
  Se  Se28  1  0.950379  0.682446  0.539128  1
  Se  Se29  1  0.328047  0.950379  0.539128  1
  Se  Se30  1  0.328047  0.539128  0.682446  1
  Se  Se31  1  0.950379  0.539128  0.328047  1
  Se  Se32  1  0.539128  0.950379  0.682446  1
  Se  Se33  1  0.682446  0.328047  0.539128  1
  Se  Se34  1  0.671953  0.317554  0.049621  1
  Se  Se35  1  0.049621  0.671953  0.317554  1
  Se  Se36  1  0.317554  0.049621  0.671953  1
  Se  Se37  1  0.460872  0.671953  0.049621  1
  Se  Se38  1  0.317554  0.460872  0.049621  1
  Se  Se39  1  0.460872  0.317554  0.671953  1
