# generated using pymatgen
data_Cs2Mg3TiAs4
_symmetry_space_group_name_H-M   'P 1'
_cell_length_a   8.27185341
_cell_length_b   8.27185386
_cell_length_c   6.28788500
_cell_angle_alpha   90.00000000
_cell_angle_beta   90.00000000
_cell_angle_gamma   135.34191535
_symmetry_Int_Tables_number   1
_chemical_formula_structural   Cs2Mg3TiAs4
_chemical_formula_sum   'Cs2 Mg3 Ti1 As4'
_cell_volume   302.40437725
_cell_formula_units_Z   1
loop_
 _symmetry_equiv_pos_site_id
 _symmetry_equiv_pos_as_xyz
  1  'x, y, z'
loop_
 _atom_site_type_symbol
 _atom_site_label
 _atom_site_symmetry_multiplicity
 _atom_site_fract_x
 _atom_site_fract_y
 _atom_site_fract_z
 _atom_site_occupancy
  Cs  Cs0  1  0.500000  0.000000  0.254207  1
  Cs  Cs1  1  0.000000  0.500000  0.745793  1
  Mg  Mg2  1  0.500000  0.500000  0.500000  1
  Mg  Mg3  1  0.500000  0.500000  0.000000  1
  Mg  Mg4  1  0.000000  0.000000  0.500000  1
  Ti  Ti5  1  0.000000  0.000000  0.000000  1
  As  As6  1  0.671904  0.861108  0.766818  1
  As  As7  1  0.138892  0.328096  0.233182  1
  As  As8  1  0.861108  0.671904  0.233182  1
  As  As9  1  0.328096  0.138892  0.766818  1
