# generated using pymatgen
data_Cs4Li2ZrAlAs4
_symmetry_space_group_name_H-M   'P 1'
_cell_length_a   12.73606706
_cell_length_b   12.73606655
_cell_length_c   12.73606694
_cell_angle_alpha   150.73028892
_cell_angle_beta   41.45221892
_cell_angle_gamma   151.30405633
_symmetry_Int_Tables_number   1
_chemical_formula_structural   Cs4Li2ZrAlAs4
_chemical_formula_sum   'Cs4 Li2 Zr1 Al1 As4'
_cell_volume   483.90632193
_cell_formula_units_Z   1
loop_
 _symmetry_equiv_pos_site_id
 _symmetry_equiv_pos_as_xyz
  1  'x, y, z'
loop_
 _atom_site_type_symbol
 _atom_site_label
 _atom_site_symmetry_multiplicity
 _atom_site_fract_x
 _atom_site_fract_y
 _atom_site_fract_z
 _atom_site_occupancy
  Cs  Cs0  1  0.361201  0.766840  0.120894  1
  Cs  Cs1  1  0.138799  0.259693  0.405638  1
  Cs  Cs2  1  0.854053  0.733159  0.594362  1
  Cs  Cs3  1  0.645947  0.240307  0.879106  1
  Li  Li4  1  0.750001  0.250001  0.500000  1
  Li  Li5  1  0.250001  0.750001  0.500000  1
  Zr  Zr6  1  0.250001  0.250001  0.000000  1
  Al  Al7  1  0.750000  0.750000  0.000000  1
  As  As8  1  0.933517  0.225341  0.172297  1
  As  As9  1  0.566482  0.738779  0.291825  1
  As  As10  1  0.446955  0.274659  0.708176  1
  As  As11  1  0.053045  0.761221  0.827703  1
