# generated using pymatgen
data_Cs(CoSe2)2
_symmetry_space_group_name_H-M   'P 1'
_cell_length_a   6.06123800
_cell_length_b   7.02317800
_cell_length_c   17.22926700
_cell_angle_alpha   90.00000000
_cell_angle_beta   90.00000000
_cell_angle_gamma   90.00000000
_symmetry_Int_Tables_number   1
_chemical_formula_structural   Cs(CoSe2)2
_chemical_formula_sum   'Cs4 Co8 Se16'
_cell_volume   733.43530945
_cell_formula_units_Z   4
loop_
 _symmetry_equiv_pos_site_id
 _symmetry_equiv_pos_as_xyz
  1  'x, y, z'
loop_
 _atom_site_type_symbol
 _atom_site_label
 _atom_site_symmetry_multiplicity
 _atom_site_fract_x
 _atom_site_fract_y
 _atom_site_fract_z
 _atom_site_occupancy
  Cs  Cs0  1  0.363864  0.000000  0.000000  1
  Cs  Cs1  1  0.636136  0.500000  0.500000  1
  Cs  Cs2  1  0.038854  0.000000  0.500000  1
  Cs  Cs3  1  0.961146  0.500000  0.000000  1
  Co  Co4  1  0.004379  0.000000  0.251736  1
  Co  Co5  1  0.004379  0.000000  0.748264  1
  Co  Co6  1  0.995621  0.500000  0.248264  1
  Co  Co7  1  0.995621  0.500000  0.751736  1
  Co  Co8  1  0.500000  0.250000  0.250000  1
  Co  Co9  1  0.500000  0.750000  0.750000  1
  Co  Co10  1  0.500000  0.750000  0.250000  1
  Co  Co11  1  0.500000  0.250000  0.750000  1
  Se  Se12  1  0.834724  0.250980  0.324134  1
  Se  Se13  1  0.834724  0.749020  0.675866  1
  Se  Se14  1  0.165276  0.750980  0.175866  1
  Se  Se15  1  0.165276  0.249020  0.824134  1
  Se  Se16  1  0.165276  0.249020  0.175866  1
  Se  Se17  1  0.165276  0.750980  0.824134  1
  Se  Se18  1  0.834724  0.749020  0.324134  1
  Se  Se19  1  0.834724  0.250980  0.675866  1
  Se  Se20  1  0.673152  0.000000  0.176377  1
  Se  Se21  1  0.673152  0.000000  0.823623  1
  Se  Se22  1  0.326848  0.500000  0.323623  1
  Se  Se23  1  0.326848  0.500000  0.676377  1
  Se  Se24  1  0.341204  0.000000  0.324979  1
  Se  Se25  1  0.341204  0.000000  0.675021  1
  Se  Se26  1  0.658796  0.500000  0.175021  1
  Se  Se27  1  0.658796  0.500000  0.824979  1
