# generated using pymatgen
data_Cs2TbSm(SbAu)4
_symmetry_space_group_name_H-M   'P 1'
_cell_length_a   4.65584300
_cell_length_b   4.65584211
_cell_length_c   20.27094800
_cell_angle_alpha   90.00000000
_cell_angle_beta   90.00000000
_cell_angle_gamma   120.00001341
_symmetry_Int_Tables_number   1
_chemical_formula_structural   Cs2TbSm(SbAu)4
_chemical_formula_sum   'Cs2 Tb1 Sm1 Sb4 Au4'
_cell_volume   380.54077977
_cell_formula_units_Z   1
loop_
 _symmetry_equiv_pos_site_id
 _symmetry_equiv_pos_as_xyz
  1  'x, y, z'
loop_
 _atom_site_type_symbol
 _atom_site_label
 _atom_site_symmetry_multiplicity
 _atom_site_fract_x
 _atom_site_fract_y
 _atom_site_fract_z
 _atom_site_occupancy
  Cs  Cs0  1  0.000000  0.000000  0.501122  1
  Cs  Cs1  1  0.000000  0.000000  0.998878  1
  Tb  Tb2  1  0.000000  0.000000  0.750000  1
  Sm  Sm3  1  0.000000  0.000000  0.250000  1
  Sb  Sb4  1  0.333333  0.666667  0.358922  1
  Sb  Sb5  1  0.666667  0.333333  0.642405  1
  Sb  Sb6  1  0.666667  0.333333  0.857595  1
  Sb  Sb7  1  0.333333  0.666667  0.141078  1
  Au  Au8  1  0.666667  0.333333  0.332906  1
  Au  Au9  1  0.333333  0.666667  0.670626  1
  Au  Au10  1  0.333333  0.666667  0.829374  1
  Au  Au11  1  0.666667  0.333333  0.167094  1
