# generated using pymatgen
data_Cs3TbI6
_symmetry_space_group_name_H-M   'P 1'
_cell_length_a   10.72340100
_cell_length_b   10.72340100
_cell_length_c   8.86299400
_cell_angle_alpha   90.00000000
_cell_angle_beta   90.00000000
_cell_angle_gamma   90.00000000
_symmetry_Int_Tables_number   1
_chemical_formula_structural   Cs3TbI6
_chemical_formula_sum   'Cs6 Tb2 I12'
_cell_volume   1019.16745904
_cell_formula_units_Z   2
loop_
 _symmetry_equiv_pos_site_id
 _symmetry_equiv_pos_as_xyz
  1  'x, y, z'
loop_
 _atom_site_type_symbol
 _atom_site_label
 _atom_site_symmetry_multiplicity
 _atom_site_fract_x
 _atom_site_fract_y
 _atom_site_fract_z
 _atom_site_occupancy
  Cs  Cs0  1  0.000000  0.000000  0.500000  1
  Cs  Cs1  1  0.000000  0.000000  0.000000  1
  Cs  Cs2  1  0.232807  0.587712  0.500000  1
  Cs  Cs3  1  0.767193  0.412288  0.500000  1
  Cs  Cs4  1  0.412288  0.232807  0.000000  1
  Cs  Cs5  1  0.587712  0.767193  0.000000  1
  Tb  Tb6  1  0.500000  0.000000  0.500000  1
  Tb  Tb7  1  0.000000  0.500000  0.000000  1
  I  I8  1  0.694486  0.059764  0.743834  1
  I  I9  1  0.305514  0.940236  0.743834  1
  I  I10  1  0.940236  0.694486  0.243834  1
  I  I11  1  0.059764  0.305514  0.243834  1
  I  I12  1  0.305514  0.940236  0.256166  1
  I  I13  1  0.694486  0.059764  0.256166  1
  I  I14  1  0.059764  0.305514  0.756166  1
  I  I15  1  0.940236  0.694486  0.756166  1
  I  I16  1  0.570311  0.724346  0.500000  1
  I  I17  1  0.429689  0.275654  0.500000  1
  I  I18  1  0.275654  0.570311  0.000000  1
  I  I19  1  0.724346  0.429689  0.000000  1
