# generated using pymatgen
data_LiV6CoS12
_symmetry_space_group_name_H-M   'P 1'
_cell_length_a   5.52830800
_cell_length_b   5.52830785
_cell_length_c   12.14013500
_cell_angle_alpha   90.00000000
_cell_angle_beta   90.00000000
_cell_angle_gamma   120.00000087
_symmetry_Int_Tables_number   1
_chemical_formula_structural   LiV6CoS12
_chemical_formula_sum   'Li1 V6 Co1 S12'
_cell_volume   321.32061878
_cell_formula_units_Z   1
loop_
 _symmetry_equiv_pos_site_id
 _symmetry_equiv_pos_as_xyz
  1  'x, y, z'
loop_
 _atom_site_type_symbol
 _atom_site_label
 _atom_site_symmetry_multiplicity
 _atom_site_fract_x
 _atom_site_fract_y
 _atom_site_fract_z
 _atom_site_occupancy
  Li  Li0  1  0.666667  0.333333  0.750000  1
  V  V1  1  0.333333  0.666667  0.015579  1
  V  V2  1  0.666667  0.333333  0.480765  1
  V  V3  1  0.333333  0.666667  0.484421  1
  V  V4  1  0.000000  0.000000  0.018766  1
  V  V5  1  0.666667  0.333333  0.019235  1
  V  V6  1  0.000000  0.000000  0.481234  1
  Co  Co7  1  0.333333  0.666667  0.250000  1
  S  S8  1  0.002029  0.666735  0.136612  1
  S  S9  1  0.669006  0.668373  0.604843  1
  S  S10  1  0.002029  0.335293  0.363388  1
  S  S11  1  0.333265  0.335293  0.136612  1
  S  S12  1  0.331627  0.000633  0.604843  1
  S  S13  1  0.331627  0.330994  0.895157  1
  S  S14  1  0.664707  0.666735  0.363388  1
  S  S15  1  0.999367  0.668373  0.895157  1
  S  S16  1  0.669006  0.000633  0.895157  1
  S  S17  1  0.333265  0.997971  0.363388  1
  S  S18  1  0.664707  0.997971  0.136612  1
  S  S19  1  0.999367  0.330994  0.604843  1
