# generated using pymatgen
data_YEr3(CO)2
_symmetry_space_group_name_H-M   'P 1'
_cell_length_a   6.05120388
_cell_length_b   6.05120393
_cell_length_c   6.05120306
_cell_angle_alpha   132.17294960
_cell_angle_beta   132.15639022
_cell_angle_gamma   69.96906881
_symmetry_Int_Tables_number   1
_chemical_formula_structural   YEr3(CO)2
_chemical_formula_sum   'Y1 Er3 C2 O2'
_cell_volume   119.35746210
_cell_formula_units_Z   1
loop_
 _symmetry_equiv_pos_site_id
 _symmetry_equiv_pos_as_xyz
  1  'x, y, z'
loop_
 _atom_site_type_symbol
 _atom_site_label
 _atom_site_symmetry_multiplicity
 _atom_site_fract_x
 _atom_site_fract_y
 _atom_site_fract_z
 _atom_site_occupancy
  Y  Y0  1  0.503402  0.003402  0.500000  1
  Er  Er1  1  0.753779  0.753779  0.000000  1
  Er  Er2  1  0.246230  0.246230  0.000000  1
  Er  Er3  1  0.996067  0.496067  0.500000  1
  C  C4  1  0.000057  0.000057  0.000000  1
  C  C5  1  0.751752  0.251752  0.500000  1
  O  O6  1  0.500041  0.500041  0.000000  1
  O  O7  1  0.248671  0.748671  0.500000  1
