# generated using pymatgen
data_YAl4(CuO4)3
_symmetry_space_group_name_H-M   'P 1'
_cell_length_a   6.22337280
_cell_length_b   6.22337369
_cell_length_c   6.22337400
_cell_angle_alpha   109.47122165
_cell_angle_beta   109.47122455
_cell_angle_gamma   109.47122303
_symmetry_Int_Tables_number   1
_chemical_formula_structural   YAl4(CuO4)3
_chemical_formula_sum   'Y1 Al4 Cu3 O12'
_cell_volume   185.54773939
_cell_formula_units_Z   1
loop_
 _symmetry_equiv_pos_site_id
 _symmetry_equiv_pos_as_xyz
  1  'x, y, z'
loop_
 _atom_site_type_symbol
 _atom_site_label
 _atom_site_symmetry_multiplicity
 _atom_site_fract_x
 _atom_site_fract_y
 _atom_site_fract_z
 _atom_site_occupancy
  Y  Y0  1  0.000000  0.000000  0.000000  1
  Al  Al1  1  0.000000  0.000000  0.500000  1
  Al  Al2  1  0.000000  0.500000  0.000000  1
  Al  Al3  1  0.500000  0.000000  0.000000  1
  Al  Al4  1  0.500000  0.500000  0.500000  1
  Cu  Cu5  1  0.000000  0.500000  0.500000  1
  Cu  Cu6  1  0.500000  0.000000  0.500000  1
  Cu  Cu7  1  0.500000  0.500000  0.000000  1
  O  O8  1  0.303437  0.129089  0.825653  1
  O  O9  1  0.696563  0.870911  0.174347  1
  O  O10  1  0.696563  0.522216  0.825653  1
  O  O11  1  0.477784  0.174347  0.303437  1
  O  O12  1  0.174347  0.303437  0.477784  1
  O  O13  1  0.825653  0.303437  0.129089  1
  O  O14  1  0.870911  0.174347  0.696563  1
  O  O15  1  0.825653  0.696563  0.522216  1
  O  O16  1  0.303437  0.477784  0.174347  1
  O  O17  1  0.522216  0.825653  0.696563  1
  O  O18  1  0.174347  0.696563  0.870911  1
  O  O19  1  0.129089  0.825653  0.303437  1
