# generated using pymatgen
data_La2Y2CoI5
_symmetry_space_group_name_H-M   'P 1'
_cell_length_a   9.77904502
_cell_length_b   9.77904454
_cell_length_c   9.16288750
_cell_angle_alpha   76.52924845
_cell_angle_beta   76.52924881
_cell_angle_gamma   25.16328083
_symmetry_Int_Tables_number   1
_chemical_formula_structural   La2Y2CoI5
_chemical_formula_sum   'La2 Y2 Co1 I5'
_cell_volume   361.81029704
_cell_formula_units_Z   1
loop_
 _symmetry_equiv_pos_site_id
 _symmetry_equiv_pos_as_xyz
  1  'x, y, z'
loop_
 _atom_site_type_symbol
 _atom_site_label
 _atom_site_symmetry_multiplicity
 _atom_site_fract_x
 _atom_site_fract_y
 _atom_site_fract_z
 _atom_site_occupancy
  La  La0  1  0.866808  0.866808  0.068782  1
  La  La1  1  0.133192  0.133192  0.931218  1
  Y  Y2  1  0.500154  0.500154  0.210355  1
  Y  Y3  1  0.499846  0.499846  0.789645  1
  Co  Co4  1  0.000000  0.000000  0.000000  1
  I  I5  1  0.669917  0.669917  0.180747  1
  I  I6  1  0.330083  0.330083  0.819253  1
  I  I7  1  0.664688  0.664688  0.651174  1
  I  I8  1  0.335312  0.335312  0.348826  1
  I  I9  1  0.000000  0.000000  0.500000  1
