# generated using pymatgen
data_Ca3Y2Pb3Cl
_symmetry_space_group_name_H-M   'P 1'
_cell_length_a   9.28470800
_cell_length_b   9.28470837
_cell_length_c   6.97654600
_cell_angle_alpha   90.00000000
_cell_angle_beta   90.00000000
_cell_angle_gamma   119.99999155
_symmetry_Int_Tables_number   1
_chemical_formula_structural   Ca3Y2Pb3Cl
_chemical_formula_sum   'Ca6 Y4 Pb6 Cl2'
_cell_volume   520.84397887
_cell_formula_units_Z   2
loop_
 _symmetry_equiv_pos_site_id
 _symmetry_equiv_pos_as_xyz
  1  'x, y, z'
loop_
 _atom_site_type_symbol
 _atom_site_label
 _atom_site_symmetry_multiplicity
 _atom_site_fract_x
 _atom_site_fract_y
 _atom_site_fract_z
 _atom_site_occupancy
  Ca  Ca0  1  0.251852  0.000000  0.250000  1
  Ca  Ca1  1  0.748148  0.000000  0.750000  1
  Ca  Ca2  1  0.000000  0.251852  0.250000  1
  Ca  Ca3  1  0.000000  0.748148  0.750000  1
  Ca  Ca4  1  0.748148  0.748148  0.250000  1
  Ca  Ca5  1  0.251852  0.251852  0.750000  1
  Y  Y6  1  0.333333  0.666667  0.000000  1
  Y  Y7  1  0.666667  0.333333  0.000000  1
  Y  Y8  1  0.666667  0.333333  0.500000  1
  Y  Y9  1  0.333333  0.666667  0.500000  1
  Pb  Pb10  1  0.594526  0.000000  0.250000  1
  Pb  Pb11  1  0.405474  0.000000  0.750000  1
  Pb  Pb12  1  0.000000  0.594526  0.250000  1
  Pb  Pb13  1  0.000000  0.405474  0.750000  1
  Pb  Pb14  1  0.405474  0.405474  0.250000  1
  Pb  Pb15  1  0.594526  0.594526  0.750000  1
  Cl  Cl16  1  0.000000  0.000000  0.000000  1
  Cl  Cl17  1  0.000000  0.000000  0.500000  1
