# generated using pymatgen
data_KRb2Y(AsSe2)6
_symmetry_space_group_name_H-M   'P 1'
_cell_length_a   9.88693700
_cell_length_b   9.88693622
_cell_length_c   8.16677600
_cell_angle_alpha   90.00000000
_cell_angle_beta   90.00000000
_cell_angle_gamma   119.99999925
_symmetry_Int_Tables_number   1
_chemical_formula_structural   KRb2Y(AsSe2)6
_chemical_formula_sum   'K1 Rb2 Y1 As6 Se12'
_cell_volume   691.36084274
_cell_formula_units_Z   1
loop_
 _symmetry_equiv_pos_site_id
 _symmetry_equiv_pos_as_xyz
  1  'x, y, z'
loop_
 _atom_site_type_symbol
 _atom_site_label
 _atom_site_symmetry_multiplicity
 _atom_site_fract_x
 _atom_site_fract_y
 _atom_site_fract_z
 _atom_site_occupancy
  K  K0  1  0.000000  0.000000  0.000000  1
  Rb  Rb1  1  0.333333  0.666667  0.837317  1
  Rb  Rb2  1  0.666667  0.333333  0.162683  1
  Y  Y3  1  0.000000  0.000000  0.500000  1
  As  As4  1  0.293779  0.840779  0.370926  1
  As  As5  1  0.159221  0.453000  0.370926  1
  As  As6  1  0.547000  0.706221  0.370926  1
  As  As7  1  0.706221  0.159221  0.629074  1
  As  As8  1  0.840779  0.547000  0.629074  1
  As  As9  1  0.453000  0.293779  0.629074  1
  Se  Se10  1  0.265422  0.058917  0.295981  1
  Se  Se11  1  0.941083  0.206506  0.295981  1
  Se  Se12  1  0.793494  0.734578  0.295981  1
  Se  Se13  1  0.734578  0.941083  0.704019  1
  Se  Se14  1  0.058917  0.793494  0.704019  1
  Se  Se15  1  0.206506  0.265422  0.704019  1
  Se  Se16  1  0.531083  0.906216  0.205768  1
  Se  Se17  1  0.093784  0.624866  0.205768  1
  Se  Se18  1  0.375134  0.468917  0.205768  1
  Se  Se19  1  0.468917  0.093784  0.794232  1
  Se  Se20  1  0.906216  0.375134  0.794232  1
  Se  Se21  1  0.624866  0.531083  0.794232  1
