# generated using pymatgen
data_Dy3Y2(RhO6)2
_symmetry_space_group_name_H-M   'P 1'
_cell_length_a   6.86087400
_cell_length_b   6.86087292
_cell_length_c   7.29818334
_cell_angle_alpha   74.47939229
_cell_angle_beta   74.47939569
_cell_angle_gamma   51.24868832
_symmetry_Int_Tables_number   1
_chemical_formula_structural   Dy3Y2(RhO6)2
_chemical_formula_sum   'Dy3 Y2 Rh2 O12'
_cell_volume   255.84424627
_cell_formula_units_Z   1
loop_
 _symmetry_equiv_pos_site_id
 _symmetry_equiv_pos_as_xyz
  1  'x, y, z'
loop_
 _atom_site_type_symbol
 _atom_site_label
 _atom_site_symmetry_multiplicity
 _atom_site_fract_x
 _atom_site_fract_y
 _atom_site_fract_z
 _atom_site_occupancy
  Dy  Dy0  1  0.697957  0.697957  0.639902  1
  Dy  Dy1  1  0.309225  0.309225  0.829386  1
  Dy  Dy2  1  0.690800  0.690800  0.170544  1
  Y  Y3  1  0.302021  0.302021  0.360514  1
  Y  Y4  1  0.000047  0.000047  0.499940  1
  Rh  Rh5  1  0.753338  0.246813  0.999796  1
  Rh  Rh6  1  0.246813  0.753338  0.999796  1
  O  O7  1  0.901433  0.431079  0.915511  1
  O  O8  1  0.431079  0.901433  0.915511  1
  O  O9  1  0.098186  0.569449  0.084022  1
  O  O10  1  0.569449  0.098186  0.084022  1
  O  O11  1  0.096548  0.597957  0.574410  1
  O  O12  1  0.597957  0.096548  0.574410  1
  O  O13  1  0.901715  0.403041  0.426325  1
  O  O14  1  0.403041  0.901715  0.426325  1
  O  O15  1  0.999897  0.999897  0.818102  1
  O  O16  1  0.000108  0.000108  0.181862  1
  O  O17  1  0.500239  0.500239  0.809971  1
  O  O18  1  0.500148  0.500148  0.189652  1
