# generated using pymatgen
data_Y4Co4HgCl
_symmetry_space_group_name_H-M   'P 1'
_cell_length_a   3.90276000
_cell_length_b   3.90276147
_cell_length_c   16.30611200
_cell_angle_alpha   90.00000000
_cell_angle_beta   90.00000000
_cell_angle_gamma   119.99998756
_symmetry_Int_Tables_number   1
_chemical_formula_structural   Y4Co4HgCl
_chemical_formula_sum   'Y4 Co4 Hg1 Cl1'
_cell_volume   215.09234821
_cell_formula_units_Z   1
loop_
 _symmetry_equiv_pos_site_id
 _symmetry_equiv_pos_as_xyz
  1  'x, y, z'
loop_
 _atom_site_type_symbol
 _atom_site_label
 _atom_site_symmetry_multiplicity
 _atom_site_fract_x
 _atom_site_fract_y
 _atom_site_fract_z
 _atom_site_occupancy
  Y  Y0  1  0.000000  0.000000  0.111197  1
  Y  Y1  1  0.000000  0.000000  0.888286  1
  Y  Y2  1  0.000000  0.000000  0.611714  1
  Y  Y3  1  0.000000  0.000000  0.388803  1
  Co  Co4  1  0.333333  0.666667  0.505263  1
  Co  Co5  1  0.666667  0.333333  0.503417  1
  Co  Co6  1  0.666667  0.333333  0.996583  1
  Co  Co7  1  0.333333  0.666667  0.994737  1
  Hg  Hg8  1  0.333333  0.666667  0.250000  1
  Cl  Cl9  1  0.666667  0.333333  0.750000  1
