# generated using pymatgen
data_YTm3(CO)2
_symmetry_space_group_name_H-M   'P 1'
_cell_length_a   6.01945548
_cell_length_b   6.01945498
_cell_length_c   6.01945450
_cell_angle_alpha   132.20885023
_cell_angle_beta   132.19368078
_cell_angle_gamma   69.91132660
_symmetry_Int_Tables_number   1
_chemical_formula_structural   YTm3(CO)2
_chemical_formula_sum   'Y1 Tm3 C2 O2'
_cell_volume   117.36082084
_cell_formula_units_Z   1
loop_
 _symmetry_equiv_pos_site_id
 _symmetry_equiv_pos_as_xyz
  1  'x, y, z'
loop_
 _atom_site_type_symbol
 _atom_site_label
 _atom_site_symmetry_multiplicity
 _atom_site_fract_x
 _atom_site_fract_y
 _atom_site_fract_z
 _atom_site_occupancy
  Y  Y0  1  0.503380  0.003380  0.500000  1
  Tm  Tm1  1  0.754059  0.754059  0.000000  1
  Tm  Tm2  1  0.245934  0.245934  0.000000  1
  Tm  Tm3  1  0.996024  0.496024  0.500000  1
  C  C4  1  0.000156  0.000156  0.000000  1
  C  C5  1  0.752665  0.252665  0.500000  1
  O  O6  1  0.500180  0.500180  0.000000  1
  O  O7  1  0.247603  0.747603  0.500000  1
