# generated using pymatgen
data_Y5Zr3(P3Ir4)4
_symmetry_space_group_name_H-M   'P 1'
_cell_length_a   12.89218100
_cell_length_b   12.89217966
_cell_length_c   3.99029400
_cell_angle_alpha   90.00000000
_cell_angle_beta   90.00000000
_cell_angle_gamma   120.00000087
_symmetry_Int_Tables_number   1
_chemical_formula_structural   Y5Zr3(P3Ir4)4
_chemical_formula_sum   'Y5 Zr3 P12 Ir16'
_cell_volume   574.36539520
_cell_formula_units_Z   1
loop_
 _symmetry_equiv_pos_site_id
 _symmetry_equiv_pos_as_xyz
  1  'x, y, z'
loop_
 _atom_site_type_symbol
 _atom_site_label
 _atom_site_symmetry_multiplicity
 _atom_site_fract_x
 _atom_site_fract_y
 _atom_site_fract_z
 _atom_site_occupancy
  Y  Y0  1  0.333333  0.666667  0.000000  1
  Y  Y1  1  0.666667  0.333333  0.000000  1
  Y  Y2  1  0.815165  0.000000  0.500000  1
  Y  Y3  1  0.000000  0.815165  0.500000  1
  Y  Y4  1  0.184835  0.184835  0.500000  1
  Zr  Zr5  1  0.448900  0.000000  0.000000  1
  Zr  Zr6  1  0.000000  0.448900  0.000000  1
  Zr  Zr7  1  0.551100  0.551100  0.000000  1
  P  P8  1  0.176124  0.000000  0.000000  1
  P  P9  1  0.000000  0.176124  0.000000  1
  P  P10  1  0.823876  0.823876  0.000000  1
  P  P11  1  0.169350  0.482520  0.500000  1
  P  P12  1  0.517480  0.686829  0.500000  1
  P  P13  1  0.313171  0.830650  0.500000  1
  P  P14  1  0.686829  0.517480  0.500000  1
  P  P15  1  0.830650  0.313171  0.500000  1
  P  P16  1  0.482520  0.169350  0.500000  1
  P  P17  1  0.648902  0.000000  0.000000  1
  P  P18  1  0.000000  0.648902  0.000000  1
  P  P19  1  0.351098  0.351098  0.000000  1
  Ir  Ir20  1  0.356566  0.492496  0.500000  1
  Ir  Ir21  1  0.507504  0.864070  0.500000  1
  Ir  Ir22  1  0.135930  0.643434  0.500000  1
  Ir  Ir23  1  0.864070  0.507504  0.500000  1
  Ir  Ir24  1  0.643434  0.135930  0.500000  1
  Ir  Ir25  1  0.492496  0.356566  0.500000  1
  Ir  Ir26  1  0.178180  0.370882  0.000000  1
  Ir  Ir27  1  0.629118  0.807298  0.000000  1
  Ir  Ir28  1  0.192702  0.821820  0.000000  1
  Ir  Ir29  1  0.807298  0.629118  0.000000  1
  Ir  Ir30  1  0.821820  0.192702  0.000000  1
  Ir  Ir31  1  0.370882  0.178180  0.000000  1
  Ir  Ir32  1  0.278622  0.000000  0.500000  1
  Ir  Ir33  1  0.000000  0.278622  0.500000  1
  Ir  Ir34  1  0.721378  0.721378  0.500000  1
  Ir  Ir35  1  0.000000  0.000000  0.000000  1
