# generated using pymatgen
data_Dy4YPb3Cl
_symmetry_space_group_name_H-M   'P 1'
_cell_length_a   9.21688500
_cell_length_b   9.21688603
_cell_length_c   6.61723900
_cell_angle_alpha   90.00000000
_cell_angle_beta   90.00000000
_cell_angle_gamma   120.01647492
_symmetry_Int_Tables_number   1
_chemical_formula_structural   Dy4YPb3Cl
_chemical_formula_sum   'Dy8 Y2 Pb6 Cl2'
_cell_volume   486.74748535
_cell_formula_units_Z   2
loop_
 _symmetry_equiv_pos_site_id
 _symmetry_equiv_pos_as_xyz
  1  'x, y, z'
loop_
 _atom_site_type_symbol
 _atom_site_label
 _atom_site_symmetry_multiplicity
 _atom_site_fract_x
 _atom_site_fract_y
 _atom_site_fract_z
 _atom_site_occupancy
  Dy  Dy0  1  0.260737  0.999989  0.250000  1
  Dy  Dy1  1  0.739263  0.000011  0.750000  1
  Dy  Dy2  1  0.999989  0.260737  0.250000  1
  Dy  Dy3  1  0.000011  0.739263  0.750000  1
  Dy  Dy4  1  0.333295  0.666705  0.000000  1
  Dy  Dy5  1  0.666705  0.333295  0.000000  1
  Dy  Dy6  1  0.666705  0.333295  0.500000  1
  Dy  Dy7  1  0.333295  0.666705  0.500000  1
  Y  Y8  1  0.739378  0.739378  0.250000  1
  Y  Y9  1  0.260622  0.260622  0.750000  1
  Pb  Pb10  1  0.610718  0.000157  0.250000  1
  Pb  Pb11  1  0.389282  0.999843  0.750000  1
  Pb  Pb12  1  0.000157  0.610718  0.250000  1
  Pb  Pb13  1  0.999843  0.389282  0.750000  1
  Pb  Pb14  1  0.389016  0.389016  0.250000  1
  Pb  Pb15  1  0.610984  0.610984  0.750000  1
  Cl  Cl16  1  0.000000  0.000000  0.000000  1
  Cl  Cl17  1  0.000000  0.000000  0.500000  1
