# generated using pymatgen
data_Y3Th2Pb3Cl
_symmetry_space_group_name_H-M   'P 1'
_cell_length_a   9.41595300
_cell_length_b   9.41595195
_cell_length_c   6.63093600
_cell_angle_alpha   90.00000000
_cell_angle_beta   90.00000000
_cell_angle_gamma   120.00000720
_symmetry_Int_Tables_number   1
_chemical_formula_structural   Y3Th2Pb3Cl
_chemical_formula_sum   'Y6 Th4 Pb6 Cl2'
_cell_volume   509.13617113
_cell_formula_units_Z   2
loop_
 _symmetry_equiv_pos_site_id
 _symmetry_equiv_pos_as_xyz
  1  'x, y, z'
loop_
 _atom_site_type_symbol
 _atom_site_label
 _atom_site_symmetry_multiplicity
 _atom_site_fract_x
 _atom_site_fract_y
 _atom_site_fract_z
 _atom_site_occupancy
  Y  Y0  1  0.733107  0.733107  0.250000  1
  Y  Y1  1  0.266893  0.000000  0.250000  1
  Y  Y2  1  0.000000  0.266893  0.250000  1
  Y  Y3  1  0.266893  0.266893  0.750000  1
  Y  Y4  1  0.733107  0.000000  0.750000  1
  Y  Y5  1  0.000000  0.733107  0.750000  1
  Th  Th6  1  0.666667  0.333333  0.500000  1
  Th  Th7  1  0.333333  0.666667  0.500000  1
  Th  Th8  1  0.333333  0.666667  0.000000  1
  Th  Th9  1  0.666667  0.333333  0.000000  1
  Pb  Pb10  1  0.382701  0.382701  0.250000  1
  Pb  Pb11  1  0.617299  0.000000  0.250000  1
  Pb  Pb12  1  0.000000  0.617299  0.250000  1
  Pb  Pb13  1  0.617299  0.617299  0.750000  1
  Pb  Pb14  1  0.382701  0.000000  0.750000  1
  Pb  Pb15  1  0.000000  0.382701  0.750000  1
  Cl  Cl16  1  0.000000  0.000000  0.500000  1
  Cl  Cl17  1  0.000000  0.000000  0.000000  1
