# generated using pymatgen
data_YAg3(Ir2O7)2
_symmetry_space_group_name_H-M   'P 1'
_cell_length_a   7.21514710
_cell_length_b   7.21514700
_cell_length_c   7.26120581
_cell_angle_alpha   60.20961504
_cell_angle_beta   60.20961314
_cell_angle_gamma   60.00000027
_symmetry_Int_Tables_number   1
_chemical_formula_structural   YAg3(Ir2O7)2
_chemical_formula_sum   'Y1 Ag3 Ir4 O14'
_cell_volume   268.13460313
_cell_formula_units_Z   1
loop_
 _symmetry_equiv_pos_site_id
 _symmetry_equiv_pos_as_xyz
  1  'x, y, z'
loop_
 _atom_site_type_symbol
 _atom_site_label
 _atom_site_symmetry_multiplicity
 _atom_site_fract_x
 _atom_site_fract_y
 _atom_site_fract_z
 _atom_site_occupancy
  Y  Y0  1  0.125000  0.125000  0.625000  1
  Ag  Ag1  1  0.625000  0.125000  0.125000  1
  Ag  Ag2  1  0.125000  0.625000  0.125000  1
  Ag  Ag3  1  0.125000  0.125000  0.125000  1
  Ir  Ir4  1  0.125000  0.625000  0.625000  1
  Ir  Ir5  1  0.625000  0.125000  0.625000  1
  Ir  Ir6  1  0.625000  0.625000  0.125000  1
  Ir  Ir7  1  0.625000  0.625000  0.625000  1
  O  O8  1  0.695408  0.695408  0.307095  1
  O  O9  1  0.295067  0.295067  0.695596  1
  O  O10  1  0.714269  0.295067  0.695596  1
  O  O11  1  0.302088  0.695408  0.307095  1
  O  O12  1  0.295067  0.714269  0.695596  1
  O  O13  1  0.695408  0.302088  0.307095  1
  O  O14  1  0.554592  0.554592  0.942905  1
  O  O15  1  0.954933  0.954933  0.554404  1
  O  O16  1  0.535731  0.954933  0.554404  1
  O  O17  1  0.947912  0.554592  0.942905  1
  O  O18  1  0.954933  0.535731  0.554404  1
  O  O19  1  0.554592  0.947912  0.942905  1
  O  O20  1  0.255097  0.255097  0.234709  1
  O  O21  1  0.994903  0.994903  0.015291  1
