# generated using pymatgen
data_LaY2TaO7
_symmetry_space_group_name_H-M   'P 1'
_cell_length_a   6.54437661
_cell_length_b   6.54437598
_cell_length_c   7.64079700
_cell_angle_alpha   90.00000000
_cell_angle_beta   90.00000000
_cell_angle_gamma   109.02960513
_symmetry_Int_Tables_number   1
_chemical_formula_structural   LaY2TaO7
_chemical_formula_sum   'La2 Y4 Ta2 O14'
_cell_volume   309.36267896
_cell_formula_units_Z   2
loop_
 _symmetry_equiv_pos_site_id
 _symmetry_equiv_pos_as_xyz
  1  'x, y, z'
loop_
 _atom_site_type_symbol
 _atom_site_label
 _atom_site_symmetry_multiplicity
 _atom_site_fract_x
 _atom_site_fract_y
 _atom_site_fract_z
 _atom_site_occupancy
  La  La0  1  0.500000  0.500000  0.500000  1
  La  La1  1  0.500000  0.500000  0.000000  1
  Y  Y2  1  0.532161  0.000527  0.750000  1
  Y  Y3  1  0.000527  0.532161  0.250000  1
  Y  Y4  1  0.467839  0.999473  0.250000  1
  Y  Y5  1  0.999473  0.467839  0.750000  1
  Ta  Ta6  1  0.000000  0.000000  0.500000  1
  Ta  Ta7  1  0.000000  0.000000  0.000000  1
  O  O8  1  0.681985  0.933936  0.467882  1
  O  O9  1  0.933936  0.681985  0.532118  1
  O  O10  1  0.681985  0.933936  0.032118  1
  O  O11  1  0.933936  0.681985  0.967882  1
  O  O12  1  0.318015  0.066064  0.532118  1
  O  O13  1  0.066064  0.318015  0.467882  1
  O  O14  1  0.318015  0.066064  0.967882  1
  O  O15  1  0.066064  0.318015  0.032118  1
  O  O16  1  0.938280  0.061720  0.750000  1
  O  O17  1  0.061720  0.938280  0.250000  1
  O  O18  1  0.362841  0.637159  0.750000  1
  O  O19  1  0.637159  0.362841  0.250000  1
  O  O20  1  0.644132  0.355868  0.750000  1
  O  O21  1  0.355868  0.644132  0.250000  1
