# generated using pymatgen
data_Y2LuAg(Ir2O7)2
_symmetry_space_group_name_H-M   'P 1'
_cell_length_a   7.30827461
_cell_length_b   7.31058206
_cell_length_c   7.15599705
_cell_angle_alpha   59.44453604
_cell_angle_beta   59.29354227
_cell_angle_gamma   60.01043770
_symmetry_Int_Tables_number   1
_chemical_formula_structural   Y2LuAg(Ir2O7)2
_chemical_formula_sum   'Y2 Lu1 Ag1 Ir4 O14'
_cell_volume   267.75998108
_cell_formula_units_Z   1
loop_
 _symmetry_equiv_pos_site_id
 _symmetry_equiv_pos_as_xyz
  1  'x, y, z'
loop_
 _atom_site_type_symbol
 _atom_site_label
 _atom_site_symmetry_multiplicity
 _atom_site_fract_x
 _atom_site_fract_y
 _atom_site_fract_z
 _atom_site_occupancy
  Y  Y0  1  0.625000  0.125000  0.125000  1
  Y  Y1  1  0.125000  0.125000  0.125000  1
  Lu  Lu2  1  0.125000  0.625000  0.125000  1
  Ag  Ag3  1  0.125000  0.125000  0.625000  1
  Ir  Ir4  1  0.125000  0.625000  0.625000  1
  Ir  Ir5  1  0.625000  0.125000  0.625000  1
  Ir  Ir6  1  0.625000  0.625000  0.125000  1
  Ir  Ir7  1  0.625000  0.625000  0.625000  1
  O  O8  1  0.716840  0.707828  0.285117  1
  O  O9  1  0.298167  0.299092  0.709354  1
  O  O10  1  0.693386  0.299092  0.709354  1
  O  O11  1  0.290215  0.707828  0.285117  1
  O  O12  1  0.297165  0.689339  0.716331  1
  O  O13  1  0.712364  0.290807  0.284464  1
  O  O14  1  0.533160  0.542172  0.964883  1
  O  O15  1  0.951833  0.950908  0.540646  1
  O  O16  1  0.556614  0.950908  0.540646  1
  O  O17  1  0.959785  0.542172  0.964883  1
  O  O18  1  0.952835  0.560661  0.533669  1
  O  O19  1  0.537636  0.959193  0.965536  1
  O  O20  1  0.248402  0.259446  0.243750  1
  O  O21  1  0.001598  0.990554  0.006250  1
