# generated using pymatgen
data_YThFe2I
_symmetry_space_group_name_H-M   'P 1'
_cell_length_a   3.99516800
_cell_length_b   3.99516852
_cell_length_c   17.58430500
_cell_angle_alpha   90.00000000
_cell_angle_beta   90.00000000
_cell_angle_gamma   120.00001228
_symmetry_Int_Tables_number   1
_chemical_formula_structural   YThFe2I
_chemical_formula_sum   'Y2 Th2 Fe4 I2'
_cell_volume   243.06696319
_cell_formula_units_Z   2
loop_
 _symmetry_equiv_pos_site_id
 _symmetry_equiv_pos_as_xyz
  1  'x, y, z'
loop_
 _atom_site_type_symbol
 _atom_site_label
 _atom_site_symmetry_multiplicity
 _atom_site_fract_x
 _atom_site_fract_y
 _atom_site_fract_z
 _atom_site_occupancy
  Y  Y0  1  0.000000  0.000000  0.392018  1
  Y  Y1  1  0.000000  0.000000  0.107982  1
  Th  Th2  1  0.000000  0.000000  0.599354  1
  Th  Th3  1  0.000000  0.000000  0.900646  1
  Fe  Fe4  1  0.666667  0.333333  0.002117  1
  Fe  Fe5  1  0.333333  0.666667  0.496569  1
  Fe  Fe6  1  0.666667  0.333333  0.497883  1
  Fe  Fe7  1  0.333333  0.666667  0.003431  1
  I  I8  1  0.666667  0.333333  0.250000  1
  I  I9  1  0.333333  0.666667  0.750000  1
