# generated using pymatgen
data_YNb8VS16
_symmetry_space_group_name_H-M   'P 1'
_cell_length_a   6.71647700
_cell_length_b   6.71647800
_cell_length_c   13.08816000
_cell_angle_alpha   90.00000000
_cell_angle_beta   90.00000000
_cell_angle_gamma   120.00000983
_symmetry_Int_Tables_number   1
_chemical_formula_structural   YNb8VS16
_chemical_formula_sum   'Y1 Nb8 V1 S16'
_cell_volume   511.31944981
_cell_formula_units_Z   1
loop_
 _symmetry_equiv_pos_site_id
 _symmetry_equiv_pos_as_xyz
  1  'x, y, z'
loop_
 _atom_site_type_symbol
 _atom_site_label
 _atom_site_symmetry_multiplicity
 _atom_site_fract_x
 _atom_site_fract_y
 _atom_site_fract_z
 _atom_site_occupancy
  Y  Y0  1  0.000000  0.000000  0.000000  1
  Nb  Nb1  1  0.000000  0.000000  0.263748  1
  Nb  Nb2  1  0.000000  0.000000  0.736252  1
  Nb  Nb3  1  0.504444  0.008887  0.266539  1
  Nb  Nb4  1  0.495556  0.991113  0.733461  1
  Nb  Nb5  1  0.991113  0.495556  0.266539  1
  Nb  Nb6  1  0.008887  0.504444  0.733461  1
  Nb  Nb7  1  0.504444  0.495556  0.266539  1
  Nb  Nb8  1  0.495556  0.504444  0.733461  1
  V  V9  1  0.000000  0.000000  0.500000  1
  S  S10  1  0.333333  0.666667  0.612365  1
  S  S11  1  0.666667  0.333333  0.387635  1
  S  S12  1  0.666667  0.333333  0.144589  1
  S  S13  1  0.333333  0.666667  0.855411  1
  S  S14  1  0.169082  0.338163  0.144520  1
  S  S15  1  0.830918  0.661837  0.855480  1
  S  S16  1  0.661837  0.830918  0.144520  1
  S  S17  1  0.835138  0.670276  0.614756  1
  S  S18  1  0.338163  0.169082  0.855480  1
  S  S19  1  0.164862  0.329724  0.385244  1
  S  S20  1  0.169082  0.830918  0.144520  1
  S  S21  1  0.329724  0.164862  0.614756  1
  S  S22  1  0.830918  0.169082  0.855480  1
  S  S23  1  0.670276  0.835138  0.385244  1
  S  S24  1  0.835138  0.164862  0.614756  1
  S  S25  1  0.164862  0.835138  0.385244  1
