# generated using pymatgen
data_Pr3Y2Hg3Cl
_symmetry_space_group_name_H-M   'P 1'
_cell_length_a   9.21768900
_cell_length_b   9.21768852
_cell_length_c   6.63083700
_cell_angle_alpha   90.00000000
_cell_angle_beta   90.00000000
_cell_angle_gamma   120.00000530
_symmetry_Int_Tables_number   1
_chemical_formula_structural   Pr3Y2Hg3Cl
_chemical_formula_sum   'Pr6 Y4 Hg6 Cl2'
_cell_volume   487.91373131
_cell_formula_units_Z   2
loop_
 _symmetry_equiv_pos_site_id
 _symmetry_equiv_pos_as_xyz
  1  'x, y, z'
loop_
 _atom_site_type_symbol
 _atom_site_label
 _atom_site_symmetry_multiplicity
 _atom_site_fract_x
 _atom_site_fract_y
 _atom_site_fract_z
 _atom_site_occupancy
  Pr  Pr0  1  0.268166  0.268166  0.750000  1
  Pr  Pr1  1  0.000000  0.731834  0.750000  1
  Pr  Pr2  1  0.731834  0.000000  0.750000  1
  Pr  Pr3  1  0.000000  0.268166  0.250000  1
  Pr  Pr4  1  0.731834  0.731834  0.250000  1
  Pr  Pr5  1  0.268166  0.000000  0.250000  1
  Y  Y6  1  0.333333  0.666667  0.500000  1
  Y  Y7  1  0.666667  0.333333  0.500000  1
  Y  Y8  1  0.333333  0.666667  0.000000  1
  Y  Y9  1  0.666667  0.333333  0.000000  1
  Hg  Hg10  1  0.605378  0.000000  0.250000  1
  Hg  Hg11  1  0.000000  0.394622  0.750000  1
  Hg  Hg12  1  0.394622  0.000000  0.750000  1
  Hg  Hg13  1  0.605378  0.605378  0.750000  1
  Hg  Hg14  1  0.000000  0.605378  0.250000  1
  Hg  Hg15  1  0.394622  0.394622  0.250000  1
  Cl  Cl16  1  0.000000  0.000000  0.000000  1
  Cl  Cl17  1  0.000000  0.000000  0.500000  1
