# generated using pymatgen
data_SmYSbI2
_symmetry_space_group_name_H-M   'P 1'
_cell_length_a   4.38689800
_cell_length_b   4.38689704
_cell_length_c   11.12114900
_cell_angle_alpha   90.00000000
_cell_angle_beta   90.00000000
_cell_angle_gamma   120.00000726
_symmetry_Int_Tables_number   1
_chemical_formula_structural   SmYSbI2
_chemical_formula_sum   'Sm1 Y1 Sb1 I2'
_cell_volume   185.35112974
_cell_formula_units_Z   1
loop_
 _symmetry_equiv_pos_site_id
 _symmetry_equiv_pos_as_xyz
  1  'x, y, z'
loop_
 _atom_site_type_symbol
 _atom_site_label
 _atom_site_symmetry_multiplicity
 _atom_site_fract_x
 _atom_site_fract_y
 _atom_site_fract_z
 _atom_site_occupancy
  Sm  Sm0  1  0.666667  0.333333  0.846102  1
  Y  Y1  1  0.333333  0.666667  0.154245  1
  Sb  Sb2  1  0.000000  0.000000  0.004348  1
  I  I3  1  0.333333  0.666667  0.666827  1
  I  I4  1  0.666667  0.333333  0.328479  1
