# generated using pymatgen
data_Y4GaSe3
_symmetry_space_group_name_H-M   'P 1'
_cell_length_a   7.15557196
_cell_length_b   7.15557138
_cell_length_c   7.15557141
_cell_angle_alpha   132.06760217
_cell_angle_beta   132.06759308
_cell_angle_gamma   70.12228322
_symmetry_Int_Tables_number   1
_chemical_formula_structural   Y4GaSe3
_chemical_formula_sum   'Y4 Ga1 Se3'
_cell_volume   197.92811315
_cell_formula_units_Z   1
loop_
 _symmetry_equiv_pos_site_id
 _symmetry_equiv_pos_as_xyz
  1  'x, y, z'
loop_
 _atom_site_type_symbol
 _atom_site_label
 _atom_site_symmetry_multiplicity
 _atom_site_fract_x
 _atom_site_fract_y
 _atom_site_fract_z
 _atom_site_occupancy
  Y  Y0  1  0.245727  0.245727  0.000000  1
  Y  Y1  1  0.754273  0.754273  0.000000  1
  Y  Y2  1  0.500000  0.000000  0.500000  1
  Y  Y3  1  0.000000  0.500000  0.500000  1
  Ga  Ga4  1  0.000000  0.000000  0.000000  1
  Se  Se5  1  0.750000  0.250000  0.500000  1
  Se  Se6  1  0.250000  0.750000  0.500000  1
  Se  Se7  1  0.500000  0.500000  0.000000  1
