# generated using pymatgen
data_La17Y2CdIr12
_symmetry_space_group_name_H-M   'P 1'
_cell_length_a   11.40760500
_cell_length_b   11.40760500
_cell_length_c   6.50436600
_cell_angle_alpha   90.00000000
_cell_angle_beta   90.00000000
_cell_angle_gamma   90.00000000
_symmetry_Int_Tables_number   1
_chemical_formula_structural   La17Y2CdIr12
_chemical_formula_sum   'La17 Y2 Cd1 Ir12'
_cell_volume   846.43559958
_cell_formula_units_Z   1
loop_
 _symmetry_equiv_pos_site_id
 _symmetry_equiv_pos_as_xyz
  1  'x, y, z'
loop_
 _atom_site_type_symbol
 _atom_site_label
 _atom_site_symmetry_multiplicity
 _atom_site_fract_x
 _atom_site_fract_y
 _atom_site_fract_z
 _atom_site_occupancy
  La  La0  1  0.279033  0.086994  0.392164  1
  La  La1  1  0.290440  0.909490  0.888267  1
  La  La2  1  0.709560  0.090510  0.888267  1
  La  La3  1  0.720967  0.913006  0.392164  1
  La  La4  1  0.590300  0.790411  0.891976  1
  La  La5  1  0.587881  0.209490  0.387241  1
  La  La6  1  0.412119  0.790510  0.387241  1
  La  La7  1  0.409700  0.209589  0.891976  1
  La  La8  1  0.209490  0.412119  0.612759  1
  La  La9  1  0.209589  0.590300  0.108024  1
  La  La10  1  0.790411  0.409700  0.108024  1
  La  La11  1  0.790510  0.587881  0.612759  1
  La  La12  1  0.909490  0.709560  0.111733  1
  La  La13  1  0.913006  0.279033  0.607836  1
  La  La14  1  0.086994  0.720967  0.607836  1
  La  La15  1  0.090510  0.290440  0.111733  1
  La  La16  1  0.000000  0.000000  0.000000  1
  Y  Y17  1  0.500000  0.500000  0.000000  1
  Y  Y18  1  0.500000  0.500000  0.500000  1
  Cd  Cd19  1  0.000000  0.000000  0.500000  1
  Ir  Ir20  1  0.844776  0.156061  0.242221  1
  Ir  Ir21  1  0.843939  0.844776  0.757779  1
  Ir  Ir22  1  0.156061  0.155224  0.757779  1
  Ir  Ir23  1  0.155224  0.843939  0.242221  1
  Ir  Ir24  1  0.650957  0.350648  0.746910  1
  Ir  Ir25  1  0.649352  0.650957  0.253090  1
  Ir  Ir26  1  0.350648  0.349043  0.253090  1
  Ir  Ir27  1  0.349043  0.649352  0.746910  1
  Ir  Ir28  1  0.500000  0.000000  0.122100  1
  Ir  Ir29  1  0.500000  0.000000  0.616403  1
  Ir  Ir30  1  0.000000  0.500000  0.877900  1
  Ir  Ir31  1  0.000000  0.500000  0.383597  1
