# generated using pymatgen
data_Tb3YIr2(PdO7)2
_symmetry_space_group_name_H-M   'P 1'
_cell_length_a   7.27199583
_cell_length_b   7.31260602
_cell_length_c   7.28151041
_cell_angle_alpha   59.85863066
_cell_angle_beta   59.61060832
_cell_angle_gamma   59.81509258
_symmetry_Int_Tables_number   1
_chemical_formula_structural   Tb3YIr2(PdO7)2
_chemical_formula_sum   'Tb3 Y1 Ir2 Pd2 O14'
_cell_volume   272.31324088
_cell_formula_units_Z   1
loop_
 _symmetry_equiv_pos_site_id
 _symmetry_equiv_pos_as_xyz
  1  'x, y, z'
loop_
 _atom_site_type_symbol
 _atom_site_label
 _atom_site_symmetry_multiplicity
 _atom_site_fract_x
 _atom_site_fract_y
 _atom_site_fract_z
 _atom_site_occupancy
  Tb  Tb0  1  0.125000  0.625000  0.125000  1
  Tb  Tb1  1  0.125000  0.125000  0.625000  1
  Tb  Tb2  1  0.125000  0.125000  0.125000  1
  Y  Y3  1  0.625000  0.125000  0.125000  1
  Ir  Ir4  1  0.625000  0.125000  0.625000  1
  Ir  Ir5  1  0.625000  0.625000  0.625000  1
  Pd  Pd6  1  0.125000  0.625000  0.625000  1
  Pd  Pd7  1  0.625000  0.625000  0.125000  1
  O  O8  1  0.710410  0.717417  0.289879  1
  O  O9  1  0.290020  0.282258  0.710463  1
  O  O10  1  0.708689  0.291253  0.708804  1
  O  O11  1  0.281851  0.718156  0.281836  1
  O  O12  1  0.290020  0.717259  0.710463  1
  O  O13  1  0.710410  0.282293  0.289879  1
  O  O14  1  0.539590  0.532583  0.960121  1
  O  O15  1  0.959980  0.967742  0.539537  1
  O  O16  1  0.541311  0.958747  0.541196  1
  O  O17  1  0.968149  0.531844  0.968164  1
  O  O18  1  0.959980  0.532741  0.539537  1
  O  O19  1  0.539590  0.967707  0.960121  1
  O  O20  1  0.251627  0.249144  0.250085  1
  O  O21  1  0.998373  0.000856  0.999915  1
