# generated using pymatgen
data_Y6Cd23Te
_symmetry_space_group_name_H-M   'P 1'
_cell_length_a   10.00758985
_cell_length_b   10.00759016
_cell_length_c   10.00759000
_cell_angle_alpha   60.00000053
_cell_angle_beta   59.99999951
_cell_angle_gamma   59.99999688
_symmetry_Int_Tables_number   1
_chemical_formula_structural   Y6Cd23Te
_chemical_formula_sum   'Y6 Cd23 Te1'
_cell_volume   708.71807014
_cell_formula_units_Z   1
loop_
 _symmetry_equiv_pos_site_id
 _symmetry_equiv_pos_as_xyz
  1  'x, y, z'
loop_
 _atom_site_type_symbol
 _atom_site_label
 _atom_site_symmetry_multiplicity
 _atom_site_fract_x
 _atom_site_fract_y
 _atom_site_fract_z
 _atom_site_occupancy
  Y  Y0  1  0.784166  0.784166  0.215834  1
  Y  Y1  1  0.215834  0.784166  0.215834  1
  Y  Y2  1  0.784166  0.215834  0.215834  1
  Y  Y3  1  0.215834  0.215834  0.784166  1
  Y  Y4  1  0.784166  0.215834  0.784166  1
  Y  Y5  1  0.215834  0.784166  0.784166  1
  Cd  Cd6  1  0.838830  0.838830  0.483512  1
  Cd  Cd7  1  0.838830  0.483512  0.838830  1
  Cd  Cd8  1  0.483512  0.838830  0.838830  1
  Cd  Cd9  1  0.838830  0.838830  0.838830  1
  Cd  Cd10  1  0.161170  0.161170  0.516488  1
  Cd  Cd11  1  0.161170  0.516488  0.161170  1
  Cd  Cd12  1  0.516488  0.161170  0.161170  1
  Cd  Cd13  1  0.161170  0.161170  0.161170  1
  Cd  Cd14  1  0.622953  0.622953  0.131141  1
  Cd  Cd15  1  0.622953  0.131141  0.622953  1
  Cd  Cd16  1  0.131141  0.622953  0.622953  1
  Cd  Cd17  1  0.622953  0.622953  0.622953  1
  Cd  Cd18  1  0.377047  0.377047  0.868859  1
  Cd  Cd19  1  0.377047  0.868859  0.377047  1
  Cd  Cd20  1  0.868859  0.377047  0.377047  1
  Cd  Cd21  1  0.377047  0.377047  0.377047  1
  Cd  Cd22  1  0.000000  0.000000  0.500000  1
  Cd  Cd23  1  0.500000  0.000000  0.500000  1
  Cd  Cd24  1  0.000000  0.500000  0.500000  1
  Cd  Cd25  1  0.500000  0.500000  0.000000  1
  Cd  Cd26  1  0.000000  0.500000  0.000000  1
  Cd  Cd27  1  0.500000  0.000000  0.000000  1
  Cd  Cd28  1  0.500000  0.500000  0.500000  1
  Te  Te29  1  0.000000  0.000000  0.000000  1
