# generated using pymatgen
data_Ca3Sm(Ru2O7)2
_symmetry_space_group_name_H-M   'P 1'
_cell_length_a   7.30689436
_cell_length_b   7.29077150
_cell_length_c   7.29077100
_cell_angle_alpha   59.99999771
_cell_angle_beta   60.07296224
_cell_angle_gamma   60.07296238
_symmetry_Int_Tables_number   1
_chemical_formula_structural   Ca3Sm(Ru2O7)2
_chemical_formula_sum   'Ca3 Sm1 Ru4 O14'
_cell_volume   274.94310868
_cell_formula_units_Z   1
loop_
 _symmetry_equiv_pos_site_id
 _symmetry_equiv_pos_as_xyz
  1  'x, y, z'
loop_
 _atom_site_type_symbol
 _atom_site_label
 _atom_site_symmetry_multiplicity
 _atom_site_fract_x
 _atom_site_fract_y
 _atom_site_fract_z
 _atom_site_occupancy
  Ca  Ca0  1  0.625000  0.625000  0.625000  1
  Ca  Ca1  1  0.625000  0.625000  0.125000  1
  Ca  Ca2  1  0.625000  0.125000  0.625000  1
  Sm  Sm3  1  0.125000  0.625000  0.625000  1
  Ru  Ru4  1  0.125000  0.125000  0.125000  1
  Ru  Ru5  1  0.625000  0.125000  0.125000  1
  Ru  Ru6  1  0.125000  0.125000  0.625000  1
  Ru  Ru7  1  0.125000  0.625000  0.125000  1
  O  O8  1  0.499931  0.500023  0.500023  1
  O  O9  1  0.750069  0.749977  0.749977  1
  O  O10  1  0.048938  0.049615  0.450724  1
  O  O11  1  0.809724  0.806223  0.192027  1
  O  O12  1  0.440276  0.057973  0.443777  1
  O  O13  1  0.440276  0.057973  0.057973  1
  O  O14  1  0.048938  0.450724  0.450724  1
  O  O15  1  0.048938  0.450724  0.049615  1
  O  O16  1  0.440276  0.443777  0.057973  1
  O  O17  1  0.201062  0.799276  0.799276  1
  O  O18  1  0.809724  0.192027  0.192027  1
  O  O19  1  0.201062  0.200385  0.799276  1
  O  O20  1  0.201062  0.799276  0.200385  1
  O  O21  1  0.809724  0.192027  0.806223  1
