# generated using pymatgen
data_CaLu(TaS2)8
_symmetry_space_group_name_H-M   'P 1'
_cell_length_a   6.72881000
_cell_length_b   6.72880929
_cell_length_c   13.76576800
_cell_angle_alpha   90.00000000
_cell_angle_beta   90.00000000
_cell_angle_gamma   120.00001332
_symmetry_Int_Tables_number   1
_chemical_formula_structural   CaLu(TaS2)8
_chemical_formula_sum   'Ca1 Lu1 Ta8 S16'
_cell_volume   539.76846028
_cell_formula_units_Z   1
loop_
 _symmetry_equiv_pos_site_id
 _symmetry_equiv_pos_as_xyz
  1  'x, y, z'
loop_
 _atom_site_type_symbol
 _atom_site_label
 _atom_site_symmetry_multiplicity
 _atom_site_fract_x
 _atom_site_fract_y
 _atom_site_fract_z
 _atom_site_occupancy
  Ca  Ca0  1  0.000000  0.000000  0.500000  1
  Lu  Lu1  1  0.000000  0.000000  0.000000  1
  Ta  Ta2  1  0.000000  0.000000  0.243183  1
  Ta  Ta3  1  0.000000  0.000000  0.756817  1
  Ta  Ta4  1  0.504848  0.495152  0.243175  1
  Ta  Ta5  1  0.504848  0.009697  0.243175  1
  Ta  Ta6  1  0.990303  0.495152  0.243175  1
  Ta  Ta7  1  0.495152  0.504848  0.756825  1
  Ta  Ta8  1  0.495152  0.990303  0.756825  1
  Ta  Ta9  1  0.009697  0.504848  0.756825  1
  S  S10  1  0.333333  0.666667  0.871706  1
  S  S11  1  0.666667  0.333333  0.128294  1
  S  S12  1  0.666667  0.333333  0.358598  1
  S  S13  1  0.333333  0.666667  0.641402  1
  S  S14  1  0.168330  0.831670  0.355023  1
  S  S15  1  0.168330  0.336660  0.355023  1
  S  S16  1  0.663340  0.831670  0.355023  1
  S  S17  1  0.831670  0.168330  0.644977  1
  S  S18  1  0.831670  0.663340  0.644977  1
  S  S19  1  0.336660  0.168330  0.644977  1
  S  S20  1  0.831552  0.168448  0.869953  1
  S  S21  1  0.831552  0.663107  0.869953  1
  S  S22  1  0.336893  0.168448  0.869953  1
  S  S23  1  0.168448  0.831552  0.130047  1
  S  S24  1  0.168448  0.336893  0.130047  1
  S  S25  1  0.663107  0.831552  0.130047  1
