# generated using pymatgen
data_Ca(PdO2)3
_symmetry_space_group_name_H-M   'P 1'
_cell_length_a   6.29929197
_cell_length_b   6.29929186
_cell_length_c   3.24130200
_cell_angle_alpha   90.00000000
_cell_angle_beta   90.00000000
_cell_angle_gamma   109.07491365
_symmetry_Int_Tables_number   1
_chemical_formula_structural   Ca(PdO2)3
_chemical_formula_sum   'Ca1 Pd3 O6'
_cell_volume   121.55619423
_cell_formula_units_Z   1
loop_
 _symmetry_equiv_pos_site_id
 _symmetry_equiv_pos_as_xyz
  1  'x, y, z'
loop_
 _atom_site_type_symbol
 _atom_site_label
 _atom_site_symmetry_multiplicity
 _atom_site_fract_x
 _atom_site_fract_y
 _atom_site_fract_z
 _atom_site_occupancy
  Ca  Ca0  1  0.000000  0.000000  0.000000  1
  Pd  Pd1  1  0.500000  0.500000  0.000000  1
  Pd  Pd2  1  0.499999  0.000000  0.500001  1
  Pd  Pd3  1  0.000000  0.499999  0.500001  1
  O  O4  1  0.422350  0.165622  0.000000  1
  O  O5  1  0.165622  0.422350  0.000000  1
  O  O6  1  0.834379  0.577651  0.000000  1
  O  O7  1  0.577651  0.834379  0.000000  1
  O  O8  1  0.836439  0.163560  0.500001  1
  O  O9  1  0.163560  0.836439  0.500001  1
