# generated using pymatgen
data_CaV9S16
_symmetry_space_group_name_H-M   'P 1'
_cell_length_a   6.31445900
_cell_length_b   6.31446070
_cell_length_c   12.49225500
_cell_angle_alpha   90.00000000
_cell_angle_beta   90.00000000
_cell_angle_gamma   120.00000682
_symmetry_Int_Tables_number   1
_chemical_formula_structural   CaV9S16
_chemical_formula_sum   'Ca1 V9 S16'
_cell_volume   431.36395738
_cell_formula_units_Z   1
loop_
 _symmetry_equiv_pos_site_id
 _symmetry_equiv_pos_as_xyz
  1  'x, y, z'
loop_
 _atom_site_type_symbol
 _atom_site_label
 _atom_site_symmetry_multiplicity
 _atom_site_fract_x
 _atom_site_fract_y
 _atom_site_fract_z
 _atom_site_occupancy
  Ca  Ca0  1  0.000000  0.000000  0.000000  1
  V  V1  1  0.000000  0.000000  0.268024  1
  V  V2  1  0.000000  0.000000  0.731976  1
  V  V3  1  0.506486  0.012973  0.270032  1
  V  V4  1  0.493514  0.987027  0.729968  1
  V  V5  1  0.987027  0.493514  0.270032  1
  V  V6  1  0.012973  0.506486  0.729968  1
  V  V7  1  0.506486  0.493514  0.270032  1
  V  V8  1  0.493514  0.506486  0.729968  1
  V  V9  1  0.000000  0.000000  0.500000  1
  S  S10  1  0.333333  0.666667  0.609914  1
  S  S11  1  0.666667  0.333333  0.390086  1
  S  S12  1  0.666667  0.333333  0.146888  1
  S  S13  1  0.333333  0.666667  0.853112  1
  S  S14  1  0.171166  0.342332  0.153303  1
  S  S15  1  0.828834  0.657668  0.846697  1
  S  S16  1  0.657668  0.828834  0.153303  1
  S  S17  1  0.832061  0.664121  0.615108  1
  S  S18  1  0.342332  0.171166  0.846697  1
  S  S19  1  0.167939  0.335879  0.384892  1
  S  S20  1  0.171166  0.828834  0.153303  1
  S  S21  1  0.335879  0.167939  0.615108  1
  S  S22  1  0.828834  0.171166  0.846697  1
  S  S23  1  0.664121  0.832061  0.384892  1
  S  S24  1  0.832061  0.167939  0.615108  1
  S  S25  1  0.167939  0.832061  0.384892  1
