# generated using pymatgen
data_KCePPt8
_symmetry_space_group_name_H-M   'P 1'
_cell_length_a   9.26405900
_cell_length_b   9.31346336
_cell_length_c   4.27627000
_cell_angle_alpha   90.00000000
_cell_angle_beta   90.00000000
_cell_angle_gamma   145.69536940
_symmetry_Int_Tables_number   1
_chemical_formula_structural   KCePPt8
_chemical_formula_sum   'K1 Ce1 P1 Pt8'
_cell_volume   207.94241629
_cell_formula_units_Z   1
loop_
 _symmetry_equiv_pos_site_id
 _symmetry_equiv_pos_as_xyz
  1  'x, y, z'
loop_
 _atom_site_type_symbol
 _atom_site_label
 _atom_site_symmetry_multiplicity
 _atom_site_fract_x
 _atom_site_fract_y
 _atom_site_fract_z
 _atom_site_occupancy
  K  K0  1  0.613878  0.377884  0.500000  1
  Ce  Ce1  1  0.370950  0.628291  0.500000  1
  P  P2  1  0.218997  0.211614  0.000000  1
  Pt  Pt3  1  0.107432  0.884158  0.000000  1
  Pt  Pt4  1  0.898318  0.113730  0.000000  1
  Pt  Pt5  1  0.495164  0.980163  0.000000  1
  Pt  Pt6  1  0.001528  0.491211  0.000000  1
  Pt  Pt7  1  0.196674  0.788767  0.500000  1
  Pt  Pt8  1  0.796022  0.194958  0.500000  1
  Pt  Pt9  1  0.006522  0.009204  0.500000  1
  Pt  Pt10  1  0.608118  0.633622  0.000000  1
