# generated using pymatgen
data_KYbB12
_symmetry_space_group_name_H-M   'P 1'
_cell_length_a   5.90269541
_cell_length_b   5.90269494
_cell_length_c   5.90269500
_cell_angle_alpha   59.99999405
_cell_angle_beta   59.99999667
_cell_angle_gamma   59.99999839
_symmetry_Int_Tables_number   1
_chemical_formula_structural   KYbB12
_chemical_formula_sum   'K1 Yb1 B12'
_cell_volume   145.42397832
_cell_formula_units_Z   1
loop_
 _symmetry_equiv_pos_site_id
 _symmetry_equiv_pos_as_xyz
  1  'x, y, z'
loop_
 _atom_site_type_symbol
 _atom_site_label
 _atom_site_symmetry_multiplicity
 _atom_site_fract_x
 _atom_site_fract_y
 _atom_site_fract_z
 _atom_site_occupancy
  K  K0  1  0.000000  0.000000  0.000000  1
  Yb  Yb1  1  0.500000  0.500000  0.500000  1
  B  B2  1  0.899988  0.600012  0.600012  1
  B  B3  1  0.399988  0.100012  0.100012  1
  B  B4  1  0.899988  0.899988  0.600012  1
  B  B5  1  0.399988  0.399988  0.100012  1
  B  B6  1  0.600012  0.899988  0.600012  1
  B  B7  1  0.100012  0.399988  0.100012  1
  B  B8  1  0.600012  0.600012  0.899988  1
  B  B9  1  0.100012  0.100012  0.399988  1
  B  B10  1  0.899988  0.600012  0.899988  1
  B  B11  1  0.399988  0.100012  0.399988  1
  B  B12  1  0.600012  0.899988  0.899988  1
  B  B13  1  0.100012  0.399988  0.399988  1
