# generated using pymatgen
data_KTcP2Pt
_symmetry_space_group_name_H-M   'P 1'
_cell_length_a   7.19119337
_cell_length_b   7.19119334
_cell_length_c   7.19119375
_cell_angle_alpha   147.47277222
_cell_angle_beta   147.47276763
_cell_angle_gamma   46.66427388
_symmetry_Int_Tables_number   1
_chemical_formula_structural   KTcP2Pt
_chemical_formula_sum   'K1 Tc1 P2 Pt1'
_cell_volume   107.12850160
_cell_formula_units_Z   1
loop_
 _symmetry_equiv_pos_site_id
 _symmetry_equiv_pos_as_xyz
  1  'x, y, z'
loop_
 _atom_site_type_symbol
 _atom_site_label
 _atom_site_symmetry_multiplicity
 _atom_site_fract_x
 _atom_site_fract_y
 _atom_site_fract_z
 _atom_site_occupancy
  K  K0  1  0.000000  0.000000  0.000000  1
  Tc  Tc1  1  0.750000  0.250000  0.500000  1
  P  P2  1  0.345872  0.345872  0.000000  1
  P  P3  1  0.654128  0.654128  0.000000  1
  Pt  Pt4  1  0.250000  0.750000  0.500000  1
