# generated using pymatgen
data_KCe(BPt4)2
_symmetry_space_group_name_H-M   'P 1'
_cell_length_a   5.54190100
_cell_length_b   5.54190071
_cell_length_c   7.62462700
_cell_angle_alpha   90.00000000
_cell_angle_beta   90.00000000
_cell_angle_gamma   119.99999579
_symmetry_Int_Tables_number   1
_chemical_formula_structural   KCe(BPt4)2
_chemical_formula_sum   'K1 Ce1 B2 Pt8'
_cell_volume   202.79944231
_cell_formula_units_Z   1
loop_
 _symmetry_equiv_pos_site_id
 _symmetry_equiv_pos_as_xyz
  1  'x, y, z'
loop_
 _atom_site_type_symbol
 _atom_site_label
 _atom_site_symmetry_multiplicity
 _atom_site_fract_x
 _atom_site_fract_y
 _atom_site_fract_z
 _atom_site_occupancy
  K  K0  1  0.000000  0.000000  0.500000  1
  Ce  Ce1  1  0.000000  0.000000  0.000000  1
  B  B2  1  0.666667  0.333333  0.500000  1
  B  B3  1  0.333333  0.666667  0.500000  1
  Pt  Pt4  1  0.666667  0.333333  0.000000  1
  Pt  Pt5  1  0.500000  0.500000  0.302240  1
  Pt  Pt6  1  0.500000  0.000000  0.302240  1
  Pt  Pt7  1  0.500000  0.000000  0.697760  1
  Pt  Pt8  1  0.500000  0.500000  0.697760  1
  Pt  Pt9  1  0.000000  0.500000  0.697760  1
  Pt  Pt10  1  0.333333  0.666667  0.000000  1
  Pt  Pt11  1  0.000000  0.500000  0.302240  1
