# generated using pymatgen
data_KTcP2Pd
_symmetry_space_group_name_H-M   'P 1'
_cell_length_a   7.20849634
_cell_length_b   7.20849652
_cell_length_c   7.20849691
_cell_angle_alpha   147.64303265
_cell_angle_beta   147.64303811
_cell_angle_gamma   46.41260120
_symmetry_Int_Tables_number   1
_chemical_formula_structural   KTcP2Pd
_chemical_formula_sum   'K1 Tc1 P2 Pd1'
_cell_volume   106.90800088
_cell_formula_units_Z   1
loop_
 _symmetry_equiv_pos_site_id
 _symmetry_equiv_pos_as_xyz
  1  'x, y, z'
loop_
 _atom_site_type_symbol
 _atom_site_label
 _atom_site_symmetry_multiplicity
 _atom_site_fract_x
 _atom_site_fract_y
 _atom_site_fract_z
 _atom_site_occupancy
  K  K0  1  0.000000  0.000000  0.000000  1
  Tc  Tc1  1  0.750000  0.250000  0.500000  1
  P  P2  1  0.345901  0.345901  0.000000  1
  P  P3  1  0.654099  0.654099  0.000000  1
  Pd  Pd4  1  0.250000  0.750000  0.500000  1
