# generated using pymatgen
data_KSc(PRu)4
_symmetry_space_group_name_H-M   'P 1'
_cell_length_a   4.06782000
_cell_length_b   4.06782000
_cell_length_c   11.31505500
_cell_angle_alpha   90.00000000
_cell_angle_beta   90.00000000
_cell_angle_gamma   90.00000000
_symmetry_Int_Tables_number   1
_chemical_formula_structural   KSc(PRu)4
_chemical_formula_sum   'K1 Sc1 P4 Ru4'
_cell_volume   187.23202043
_cell_formula_units_Z   1
loop_
 _symmetry_equiv_pos_site_id
 _symmetry_equiv_pos_as_xyz
  1  'x, y, z'
loop_
 _atom_site_type_symbol
 _atom_site_label
 _atom_site_symmetry_multiplicity
 _atom_site_fract_x
 _atom_site_fract_y
 _atom_site_fract_z
 _atom_site_occupancy
  K  K0  1  0.500000  0.500000  0.500000  1
  Sc  Sc1  1  0.000000  0.000000  0.000000  1
  P  P2  1  0.000000  0.000000  0.696247  1
  P  P3  1  0.000000  0.000000  0.303753  1
  P  P4  1  0.500000  0.500000  0.898772  1
  P  P5  1  0.500000  0.500000  0.101228  1
  Ru  Ru6  1  0.500000  0.000000  0.800352  1
  Ru  Ru7  1  0.000000  0.500000  0.800352  1
  Ru  Ru8  1  0.500000  0.000000  0.199648  1
  Ru  Ru9  1  0.000000  0.500000  0.199648  1
