# generated using pymatgen
data_K2BaB18
_symmetry_space_group_name_H-M   'P 1'
_cell_length_a   4.24714300
_cell_length_b   4.24714500
_cell_length_c   12.70379100
_cell_angle_alpha   90.00000000
_cell_angle_beta   90.00000000
_cell_angle_gamma   90.00000000
_symmetry_Int_Tables_number   1
_chemical_formula_structural   K2BaB18
_chemical_formula_sum   'K2 Ba1 B18'
_cell_volume   229.15393133
_cell_formula_units_Z   1
loop_
 _symmetry_equiv_pos_site_id
 _symmetry_equiv_pos_as_xyz
  1  'x, y, z'
loop_
 _atom_site_type_symbol
 _atom_site_label
 _atom_site_symmetry_multiplicity
 _atom_site_fract_x
 _atom_site_fract_y
 _atom_site_fract_z
 _atom_site_occupancy
  K  K0  1  0.000000  0.000000  0.333481  1
  K  K1  1  0.000000  0.000000  0.666519  1
  Ba  Ba2  1  0.000000  0.000000  0.000000  1
  B  B3  1  0.202020  0.500000  0.167806  1
  B  B4  1  0.199201  0.500000  0.500000  1
  B  B5  1  0.202020  0.500000  0.832194  1
  B  B6  1  0.500000  0.500000  0.267275  1
  B  B7  1  0.500000  0.500000  0.599850  1
  B  B8  1  0.500000  0.500000  0.931964  1
  B  B9  1  0.500000  0.202020  0.167806  1
  B  B10  1  0.500000  0.199201  0.500000  1
  B  B11  1  0.500000  0.202020  0.832194  1
  B  B12  1  0.500000  0.500000  0.068036  1
  B  B13  1  0.500000  0.500000  0.400150  1
  B  B14  1  0.500000  0.500000  0.732725  1
  B  B15  1  0.500000  0.797980  0.167806  1
  B  B16  1  0.500000  0.800799  0.500000  1
  B  B17  1  0.500000  0.797980  0.832194  1
  B  B18  1  0.797980  0.500000  0.167806  1
  B  B19  1  0.800799  0.500000  0.500000  1
  B  B20  1  0.797980  0.500000  0.832194  1
