# generated using pymatgen
data_K2GeP3Ir4
_symmetry_space_group_name_H-M   'P 1'
_cell_length_a   7.26110850
_cell_length_b   7.26110863
_cell_length_c   5.65867800
_cell_angle_alpha   90.00000000
_cell_angle_beta   90.00000000
_cell_angle_gamma   134.25430787
_symmetry_Int_Tables_number   1
_chemical_formula_structural   K2GeP3Ir4
_chemical_formula_sum   'K2 Ge1 P3 Ir4'
_cell_volume   213.69047284
_cell_formula_units_Z   1
loop_
 _symmetry_equiv_pos_site_id
 _symmetry_equiv_pos_as_xyz
  1  'x, y, z'
loop_
 _atom_site_type_symbol
 _atom_site_label
 _atom_site_symmetry_multiplicity
 _atom_site_fract_x
 _atom_site_fract_y
 _atom_site_fract_z
 _atom_site_occupancy
  K  K0  1  0.495666  0.504334  0.500000  1
  K  K1  1  0.993703  0.006297  0.000000  1
  Ge  Ge2  1  0.139188  0.860812  0.500000  1
  P  P3  1  0.659029  0.340971  0.000000  1
  P  P4  1  0.344605  0.655395  0.000000  1
  P  P5  1  0.844162  0.155838  0.500000  1
  Ir  Ir6  1  0.503289  0.998514  0.249077  1
  Ir  Ir7  1  0.001486  0.496711  0.750923  1
  Ir  Ir8  1  0.001486  0.496711  0.249077  1
  Ir  Ir9  1  0.503289  0.998514  0.750923  1
