# generated using pymatgen
data_NaNb8VSe16
_symmetry_space_group_name_H-M   'P 1'
_cell_length_a   6.99430000
_cell_length_b   6.99430095
_cell_length_c   14.19904500
_cell_angle_alpha   90.00000000
_cell_angle_beta   90.00000000
_cell_angle_gamma   120.00000497
_symmetry_Int_Tables_number   1
_chemical_formula_structural   NaNb8VSe16
_chemical_formula_sum   'Na1 Nb8 V1 Se16'
_cell_volume   601.55912194
_cell_formula_units_Z   1
loop_
 _symmetry_equiv_pos_site_id
 _symmetry_equiv_pos_as_xyz
  1  'x, y, z'
loop_
 _atom_site_type_symbol
 _atom_site_label
 _atom_site_symmetry_multiplicity
 _atom_site_fract_x
 _atom_site_fract_y
 _atom_site_fract_z
 _atom_site_occupancy
  Na  Na0  1  0.000000  0.000000  0.000000  1
  Nb  Nb1  1  0.000000  0.000000  0.272740  1
  Nb  Nb2  1  0.000000  0.000000  0.727260  1
  Nb  Nb3  1  0.508016  0.016032  0.273509  1
  Nb  Nb4  1  0.491984  0.983968  0.726491  1
  Nb  Nb5  1  0.983968  0.491984  0.273509  1
  Nb  Nb6  1  0.016032  0.508016  0.726491  1
  Nb  Nb7  1  0.508016  0.491984  0.273509  1
  Nb  Nb8  1  0.491984  0.508016  0.726491  1
  V  V9  1  0.000000  0.000000  0.500000  1
  Se  Se10  1  0.333333  0.666667  0.604862  1
  Se  Se11  1  0.666667  0.333333  0.395138  1
  Se  Se12  1  0.666667  0.333333  0.150759  1
  Se  Se13  1  0.333333  0.666667  0.849241  1
  Se  Se14  1  0.168421  0.336842  0.156556  1
  Se  Se15  1  0.831579  0.663158  0.843444  1
  Se  Se16  1  0.663158  0.831579  0.156556  1
  Se  Se17  1  0.832975  0.665949  0.610062  1
  Se  Se18  1  0.336842  0.168421  0.843444  1
  Se  Se19  1  0.167025  0.334051  0.389938  1
  Se  Se20  1  0.168421  0.831579  0.156556  1
  Se  Se21  1  0.334051  0.167025  0.610062  1
  Se  Se22  1  0.831579  0.168421  0.843444  1
  Se  Se23  1  0.665949  0.832975  0.389938  1
  Se  Se24  1  0.832975  0.167025  0.610062  1
  Se  Se25  1  0.167025  0.832975  0.389938  1
