# generated using pymatgen
data_NaLaH6Os
_symmetry_space_group_name_H-M   'P 1'
_cell_length_a   5.18211281
_cell_length_b   5.18211276
_cell_length_c   5.18211400
_cell_angle_alpha   59.99999205
_cell_angle_beta   59.99999243
_cell_angle_gamma   59.99999458
_symmetry_Int_Tables_number   1
_chemical_formula_structural   NaLaH6Os
_chemical_formula_sum   'Na1 La1 H6 Os1'
_cell_volume   98.40238345
_cell_formula_units_Z   1
loop_
 _symmetry_equiv_pos_site_id
 _symmetry_equiv_pos_as_xyz
  1  'x, y, z'
loop_
 _atom_site_type_symbol
 _atom_site_label
 _atom_site_symmetry_multiplicity
 _atom_site_fract_x
 _atom_site_fract_y
 _atom_site_fract_z
 _atom_site_occupancy
  Na  Na0  1  0.750000  0.750000  0.750000  1
  La  La1  1  0.250000  0.250000  0.250000  1
  H  H2  1  0.764446  0.764446  0.235554  1
  H  H3  1  0.235554  0.764446  0.235554  1
  H  H4  1  0.764446  0.235554  0.235554  1
  H  H5  1  0.235554  0.235554  0.764446  1
  H  H6  1  0.764446  0.235554  0.764446  1
  H  H7  1  0.235554  0.764446  0.764446  1
  Os  Os8  1  0.000000  0.000000  0.000000  1
