# generated using pymatgen
data_Na(TaS2)3
_symmetry_space_group_name_H-M   'P 1'
_cell_length_a   5.82659100
_cell_length_b   5.82659054
_cell_length_c   14.79068800
_cell_angle_alpha   90.00000000
_cell_angle_beta   90.00000000
_cell_angle_gamma   120.00000831
_symmetry_Int_Tables_number   1
_chemical_formula_structural   Na(TaS2)3
_chemical_formula_sum   'Na2 Ta6 S12'
_cell_volume   434.85854076
_cell_formula_units_Z   2
loop_
 _symmetry_equiv_pos_site_id
 _symmetry_equiv_pos_as_xyz
  1  'x, y, z'
loop_
 _atom_site_type_symbol
 _atom_site_label
 _atom_site_symmetry_multiplicity
 _atom_site_fract_x
 _atom_site_fract_y
 _atom_site_fract_z
 _atom_site_occupancy
  Na  Na0  1  0.000000  0.000000  0.500000  1
  Na  Na1  1  0.000000  0.000000  0.000000  1
  Ta  Ta2  1  0.333333  0.666667  0.250000  1
  Ta  Ta3  1  0.666667  0.333333  0.750000  1
  Ta  Ta4  1  0.666667  0.333333  0.250000  1
  Ta  Ta5  1  0.333333  0.666667  0.750000  1
  Ta  Ta6  1  0.000000  0.000000  0.250000  1
  Ta  Ta7  1  0.000000  0.000000  0.750000  1
  S  S8  1  0.334692  0.000000  0.145108  1
  S  S9  1  0.000000  0.334692  0.145108  1
  S  S10  1  0.665308  0.665308  0.145108  1
  S  S11  1  0.334692  0.334692  0.645108  1
  S  S12  1  0.665308  0.665308  0.354892  1
  S  S13  1  0.665308  0.000000  0.645108  1
  S  S14  1  0.000000  0.665308  0.645108  1
  S  S15  1  0.000000  0.665308  0.854892  1
  S  S16  1  0.334692  0.334692  0.854892  1
  S  S17  1  0.000000  0.334692  0.354892  1
  S  S18  1  0.334692  0.000000  0.354892  1
  S  S19  1  0.665308  0.000000  0.854892  1
