# generated using pymatgen
data_NaSc(MoN2)2
_symmetry_space_group_name_H-M   'P 1'
_cell_length_a   2.98852600
_cell_length_b   2.98852749
_cell_length_c   11.23735100
_cell_angle_alpha   90.00000000
_cell_angle_beta   90.00000000
_cell_angle_gamma   120.00002780
_symmetry_Int_Tables_number   1
_chemical_formula_structural   NaSc(MoN2)2
_chemical_formula_sum   'Na1 Sc1 Mo2 N4'
_cell_volume   86.91780490
_cell_formula_units_Z   1
loop_
 _symmetry_equiv_pos_site_id
 _symmetry_equiv_pos_as_xyz
  1  'x, y, z'
loop_
 _atom_site_type_symbol
 _atom_site_label
 _atom_site_symmetry_multiplicity
 _atom_site_fract_x
 _atom_site_fract_y
 _atom_site_fract_z
 _atom_site_occupancy
  Na  Na0  1  0.000000  0.000000  0.500000  1
  Sc  Sc1  1  0.000000  0.000000  0.000000  1
  Mo  Mo2  1  0.333333  0.666667  0.763168  1
  Mo  Mo3  1  0.666667  0.333333  0.236832  1
  N  N4  1  0.666667  0.333333  0.654182  1
  N  N5  1  0.666667  0.333333  0.880514  1
  N  N6  1  0.333333  0.666667  0.119486  1
  N  N7  1  0.333333  0.666667  0.345818  1
