# generated using pymatgen
data_Rb(TbB9)2
_symmetry_space_group_name_H-M   'P 1'
_cell_length_a   4.15222900
_cell_length_b   4.15222900
_cell_length_c   12.49662300
_cell_angle_alpha   90.00000000
_cell_angle_beta   90.00000000
_cell_angle_gamma   90.00000000
_symmetry_Int_Tables_number   1
_chemical_formula_structural   Rb(TbB9)2
_chemical_formula_sum   'Rb1 Tb2 B18'
_cell_volume   215.45434798
_cell_formula_units_Z   1
loop_
 _symmetry_equiv_pos_site_id
 _symmetry_equiv_pos_as_xyz
  1  'x, y, z'
loop_
 _atom_site_type_symbol
 _atom_site_label
 _atom_site_symmetry_multiplicity
 _atom_site_fract_x
 _atom_site_fract_y
 _atom_site_fract_z
 _atom_site_occupancy
  Rb  Rb0  1  0.000000  0.000000  0.000000  1
  Tb  Tb1  1  0.000000  0.000000  0.327212  1
  Tb  Tb2  1  0.000000  0.000000  0.672788  1
  B  B3  1  0.201860  0.500000  0.172736  1
  B  B4  1  0.199763  0.500000  0.500000  1
  B  B5  1  0.201860  0.500000  0.827264  1
  B  B6  1  0.500000  0.500000  0.270860  1
  B  B7  1  0.500000  0.500000  0.598170  1
  B  B8  1  0.500000  0.500000  0.929444  1
  B  B9  1  0.500000  0.201860  0.172736  1
  B  B10  1  0.500000  0.199763  0.500000  1
  B  B11  1  0.500000  0.201860  0.827264  1
  B  B12  1  0.500000  0.500000  0.070556  1
  B  B13  1  0.500000  0.500000  0.401830  1
  B  B14  1  0.500000  0.500000  0.729140  1
  B  B15  1  0.500000  0.798140  0.172736  1
  B  B16  1  0.500000  0.800237  0.500000  1
  B  B17  1  0.500000  0.798140  0.827264  1
  B  B18  1  0.798140  0.500000  0.172736  1
  B  B19  1  0.800237  0.500000  0.500000  1
  B  B20  1  0.798140  0.500000  0.827264  1
