# generated using pymatgen
data_RbBPt3Au
_symmetry_space_group_name_H-M   'P 1'
_cell_length_a   5.78299600
_cell_length_b   5.78299735
_cell_length_c   7.48119000
_cell_angle_alpha   90.00000000
_cell_angle_beta   90.00000000
_cell_angle_gamma   119.99999230
_symmetry_Int_Tables_number   1
_chemical_formula_structural   RbBPt3Au
_chemical_formula_sum   'Rb2 B2 Pt6 Au2'
_cell_volume   216.67421656
_cell_formula_units_Z   2
loop_
 _symmetry_equiv_pos_site_id
 _symmetry_equiv_pos_as_xyz
  1  'x, y, z'
loop_
 _atom_site_type_symbol
 _atom_site_label
 _atom_site_symmetry_multiplicity
 _atom_site_fract_x
 _atom_site_fract_y
 _atom_site_fract_z
 _atom_site_occupancy
  Rb  Rb0  1  0.000000  0.000000  0.500000  1
  Rb  Rb1  1  0.000000  0.000000  0.000000  1
  B  B2  1  0.666667  0.333333  0.500000  1
  B  B3  1  0.333333  0.666667  0.500000  1
  Pt  Pt4  1  0.500000  0.500000  0.309052  1
  Pt  Pt5  1  0.500000  0.000000  0.309052  1
  Pt  Pt6  1  0.500000  0.000000  0.690948  1
  Pt  Pt7  1  0.500000  0.500000  0.690948  1
  Pt  Pt8  1  0.000000  0.500000  0.690948  1
  Pt  Pt9  1  0.000000  0.500000  0.309052  1
  Au  Au10  1  0.666667  0.333333  0.000000  1
  Au  Au11  1  0.333333  0.666667  0.000000  1
