# generated using pymatgen
data_RbBaAsS4
_symmetry_space_group_name_H-M   'P 1'
_cell_length_a   6.98892300
_cell_length_b   10.05815700
_cell_length_c   12.39223500
_cell_angle_alpha   90.00000000
_cell_angle_beta   90.00000000
_cell_angle_gamma   90.00000000
_symmetry_Int_Tables_number   1
_chemical_formula_structural   RbBaAsS4
_chemical_formula_sum   'Rb4 Ba4 As4 S16'
_cell_volume   871.12064546
_cell_formula_units_Z   4
loop_
 _symmetry_equiv_pos_site_id
 _symmetry_equiv_pos_as_xyz
  1  'x, y, z'
loop_
 _atom_site_type_symbol
 _atom_site_label
 _atom_site_symmetry_multiplicity
 _atom_site_fract_x
 _atom_site_fract_y
 _atom_site_fract_z
 _atom_site_occupancy
  Rb  Rb0  1  0.250000  0.340809  0.102538  1
  Rb  Rb1  1  0.750000  0.659191  0.897462  1
  Rb  Rb2  1  0.750000  0.840809  0.397462  1
  Rb  Rb3  1  0.250000  0.159191  0.602538  1
  Ba  Ba4  1  0.250000  0.619905  0.646699  1
  Ba  Ba5  1  0.750000  0.380095  0.353301  1
  Ba  Ba6  1  0.750000  0.119905  0.853301  1
  Ba  Ba7  1  0.250000  0.880095  0.146699  1
  As  As8  1  0.250000  0.602981  0.331730  1
  As  As9  1  0.750000  0.397019  0.668270  1
  As  As10  1  0.750000  0.102981  0.168270  1
  As  As11  1  0.250000  0.897019  0.831730  1
  S  S12  1  0.250000  0.075990  0.931885  1
  S  S13  1  0.750000  0.924010  0.068115  1
  S  S14  1  0.750000  0.575990  0.568115  1
  S  S15  1  0.250000  0.424010  0.431885  1
  S  S16  1  0.250000  0.786843  0.426287  1
  S  S17  1  0.750000  0.213157  0.573713  1
  S  S18  1  0.750000  0.286843  0.073713  1
  S  S19  1  0.250000  0.713157  0.926287  1
  S  S20  1  0.002072  0.107604  0.272416  1
  S  S21  1  0.502072  0.892396  0.727584  1
  S  S22  1  0.997928  0.607604  0.227584  1
  S  S23  1  0.497928  0.392396  0.772416  1
  S  S24  1  0.997928  0.892396  0.727584  1
  S  S25  1  0.497928  0.107604  0.272416  1
  S  S26  1  0.002072  0.392396  0.772416  1
  S  S27  1  0.502072  0.607604  0.227584  1
