# generated using pymatgen
data_RbNd2CuSe4
_symmetry_space_group_name_H-M   'P 1'
_cell_length_a   4.25064700
_cell_length_b   7.65779105
_cell_length_c   14.76014400
_cell_angle_alpha   90.00000000
_cell_angle_beta   90.00000000
_cell_angle_gamma   73.88670380
_symmetry_Int_Tables_number   1
_chemical_formula_structural   RbNd2CuSe4
_chemical_formula_sum   'Rb2 Nd4 Cu2 Se8'
_cell_volume   461.57642167
_cell_formula_units_Z   2
loop_
 _symmetry_equiv_pos_site_id
 _symmetry_equiv_pos_as_xyz
  1  'x, y, z'
loop_
 _atom_site_type_symbol
 _atom_site_label
 _atom_site_symmetry_multiplicity
 _atom_site_fract_x
 _atom_site_fract_y
 _atom_site_fract_z
 _atom_site_occupancy
  Rb  Rb0  1  0.892865  0.214272  0.250000  1
  Rb  Rb1  1  0.107135  0.785727  0.750000  1
  Nd  Nd2  1  0.634157  0.731687  0.062170  1
  Nd  Nd3  1  0.634157  0.731687  0.437830  1
  Nd  Nd4  1  0.365842  0.268313  0.562170  1
  Nd  Nd5  1  0.365842  0.268313  0.937830  1
  Cu  Cu6  1  0.164149  0.671700  0.250000  1
  Cu  Cu7  1  0.835850  0.328301  0.750000  1
  Se  Se8  1  0.000000  0.000000  0.000000  1
  Se  Se9  1  0.261555  0.476886  0.112039  1
  Se  Se10  1  0.573885  0.852232  0.250000  1
  Se  Se11  1  0.261555  0.476886  0.387961  1
  Se  Se12  1  0.000000  0.000000  0.500000  1
  Se  Se13  1  0.738444  0.523114  0.612039  1
  Se  Se14  1  0.426114  0.147768  0.750000  1
  Se  Se15  1  0.738444  0.523114  0.887961  1
