# generated using pymatgen
data_Rb4HfThI12
_symmetry_space_group_name_H-M   'P 1'
_cell_length_a   8.40583400
_cell_length_b   8.40583400
_cell_length_c   12.37543300
_cell_angle_alpha   90.00000000
_cell_angle_beta   90.00000000
_cell_angle_gamma   90.00000000
_symmetry_Int_Tables_number   1
_chemical_formula_structural   Rb4HfThI12
_chemical_formula_sum   'Rb4 Hf1 Th1 I12'
_cell_volume   874.42390472
_cell_formula_units_Z   1
loop_
 _symmetry_equiv_pos_site_id
 _symmetry_equiv_pos_as_xyz
  1  'x, y, z'
loop_
 _atom_site_type_symbol
 _atom_site_label
 _atom_site_symmetry_multiplicity
 _atom_site_fract_x
 _atom_site_fract_y
 _atom_site_fract_z
 _atom_site_occupancy
  Rb  Rb0  1  0.000000  0.500000  0.245654  1
  Rb  Rb1  1  0.500000  0.000000  0.245654  1
  Rb  Rb2  1  0.000000  0.500000  0.754346  1
  Rb  Rb3  1  0.500000  0.000000  0.754346  1
  Hf  Hf4  1  0.000000  0.000000  0.000000  1
  Th  Th5  1  0.500000  0.500000  0.500000  1
  I  I6  1  0.000000  0.000000  0.232210  1
  I  I7  1  0.500000  0.500000  0.249453  1
  I  I8  1  0.000000  0.000000  0.767789  1
  I  I9  1  0.500000  0.500000  0.750547  1
  I  I10  1  0.187125  0.284875  0.000000  1
  I  I11  1  0.715125  0.187125  0.000000  1
  I  I12  1  0.284875  0.812875  0.000000  1
  I  I13  1  0.697516  0.192616  0.500000  1
  I  I14  1  0.302484  0.807384  0.500000  1
  I  I15  1  0.812875  0.715125  0.000000  1
  I  I16  1  0.807384  0.697516  0.500000  1
  I  I17  1  0.192616  0.302484  0.500000  1
