# generated using pymatgen
data_RbTh3(AsPt)4
_symmetry_space_group_name_H-M   'P 1'
_cell_length_a   4.34861500
_cell_length_b   4.34861520
_cell_length_c   17.60856000
_cell_angle_alpha   90.00000000
_cell_angle_beta   90.00000000
_cell_angle_gamma   120.00000611
_symmetry_Int_Tables_number   1
_chemical_formula_structural   RbTh3(AsPt)4
_chemical_formula_sum   'Rb1 Th3 As4 Pt4'
_cell_volume   288.37418841
_cell_formula_units_Z   1
loop_
 _symmetry_equiv_pos_site_id
 _symmetry_equiv_pos_as_xyz
  1  'x, y, z'
loop_
 _atom_site_type_symbol
 _atom_site_label
 _atom_site_symmetry_multiplicity
 _atom_site_fract_x
 _atom_site_fract_y
 _atom_site_fract_z
 _atom_site_occupancy
  Rb  Rb0  1  0.000000  0.000000  0.000000  1
  Th  Th1  1  0.000000  0.000000  0.500000  1
  Th  Th2  1  0.000000  0.000000  0.263079  1
  Th  Th3  1  0.000000  0.000000  0.736921  1
  As  As4  1  0.333333  0.666667  0.852714  1
  As  As5  1  0.666667  0.333333  0.376061  1
  As  As6  1  0.666667  0.333333  0.147286  1
  As  As7  1  0.333333  0.666667  0.623939  1
  Pt  Pt8  1  0.333333  0.666667  0.395477  1
  Pt  Pt9  1  0.666667  0.333333  0.827387  1
  Pt  Pt10  1  0.666667  0.333333  0.604523  1
  Pt  Pt11  1  0.333333  0.666667  0.172613  1
