# generated using pymatgen
data_RbDyCr2O8
_symmetry_space_group_name_H-M   'P 1'
_cell_length_a   5.80025600
_cell_length_b   5.80025596
_cell_length_c   7.93702700
_cell_angle_alpha   90.00000000
_cell_angle_beta   90.00000000
_cell_angle_gamma   120.00000022
_symmetry_Int_Tables_number   1
_chemical_formula_structural   RbDyCr2O8
_chemical_formula_sum   'Rb1 Dy1 Cr2 O8'
_cell_volume   231.25056875
_cell_formula_units_Z   1
loop_
 _symmetry_equiv_pos_site_id
 _symmetry_equiv_pos_as_xyz
  1  'x, y, z'
loop_
 _atom_site_type_symbol
 _atom_site_label
 _atom_site_symmetry_multiplicity
 _atom_site_fract_x
 _atom_site_fract_y
 _atom_site_fract_z
 _atom_site_occupancy
  Rb  Rb0  1  0.000000  0.000000  0.500000  1
  Dy  Dy1  1  0.000000  0.000000  0.000000  1
  Cr  Cr2  1  0.666667  0.333334  0.246229  1
  Cr  Cr3  1  0.333333  0.666666  0.753771  1
  O  O4  1  0.350360  0.175179  0.177567  1
  O  O5  1  0.824820  0.175179  0.177567  1
  O  O6  1  0.824821  0.649641  0.177567  1
  O  O7  1  0.666667  0.333334  0.450539  1
  O  O8  1  0.333333  0.666666  0.549462  1
  O  O9  1  0.175179  0.350359  0.822433  1
  O  O10  1  0.175180  0.824821  0.822433  1
  O  O11  1  0.649640  0.824821  0.822433  1
