# generated using pymatgen
data_RbMg3(In3Ni)2
_symmetry_space_group_name_H-M   'P 1'
_cell_length_a   8.96096100
_cell_length_b   8.96096000
_cell_length_c   4.01793100
_cell_angle_alpha   90.00000000
_cell_angle_beta   90.00000000
_cell_angle_gamma   120.00000001
_symmetry_Int_Tables_number   1
_chemical_formula_structural   RbMg3(In3Ni)2
_chemical_formula_sum   'Rb1 Mg3 In6 Ni2'
_cell_volume   279.41018431
_cell_formula_units_Z   1
loop_
 _symmetry_equiv_pos_site_id
 _symmetry_equiv_pos_as_xyz
  1  'x, y, z'
loop_
 _atom_site_type_symbol
 _atom_site_label
 _atom_site_symmetry_multiplicity
 _atom_site_fract_x
 _atom_site_fract_y
 _atom_site_fract_z
 _atom_site_occupancy
  Rb  Rb0  1  0.000000  0.000000  0.000000  1
  Mg  Mg1  1  0.500000  0.500000  0.000000  1
  Mg  Mg2  1  0.500000  0.000000  0.000000  1
  Mg  Mg3  1  0.000000  0.500000  0.000000  1
  In  In4  1  0.790297  0.580593  0.500000  1
  In  In5  1  0.580593  0.790297  0.500000  1
  In  In6  1  0.209703  0.419407  0.500000  1
  In  In7  1  0.790297  0.209703  0.500000  1
  In  In8  1  0.209703  0.790297  0.500000  1
  In  In9  1  0.419407  0.209703  0.500000  1
  Ni  Ni10  1  0.333333  0.666667  0.000000  1
  Ni  Ni11  1  0.666667  0.333333  0.000000  1
