# generated using pymatgen
data_Rb2BaThB24
_symmetry_space_group_name_H-M   'P 1'
_cell_length_a   7.27709900
_cell_length_b   7.27709905
_cell_length_c   5.94640600
_cell_angle_alpha   90.00000000
_cell_angle_beta   90.00000000
_cell_angle_gamma   109.36761158
_symmetry_Int_Tables_number   1
_chemical_formula_structural   Rb2BaThB24
_chemical_formula_sum   'Rb2 Ba1 Th1 B24'
_cell_volume   297.07884615
_cell_formula_units_Z   1
loop_
 _symmetry_equiv_pos_site_id
 _symmetry_equiv_pos_as_xyz
  1  'x, y, z'
loop_
 _atom_site_type_symbol
 _atom_site_label
 _atom_site_symmetry_multiplicity
 _atom_site_fract_x
 _atom_site_fract_y
 _atom_site_fract_z
 _atom_site_occupancy
  Rb  Rb0  1  0.751982  0.248018  0.500000  1
  Rb  Rb1  1  0.248018  0.751982  0.500000  1
  Ba  Ba2  1  0.000000  0.000000  0.000000  1
  Th  Th3  1  0.500000  0.500000  0.000000  1
  B  B4  1  0.179046  0.327993  0.647927  1
  B  B5  1  0.924203  0.572258  0.148763  1
  B  B6  1  0.672007  0.820954  0.647927  1
  B  B7  1  0.427742  0.075797  0.148763  1
  B  B8  1  0.179046  0.327993  0.352073  1
  B  B9  1  0.924203  0.572258  0.851237  1
  B  B10  1  0.672007  0.820954  0.352073  1
  B  B11  1  0.427742  0.075797  0.851237  1
  B  B12  1  0.400283  0.400283  0.500000  1
  B  B13  1  0.147320  0.649648  0.000000  1
  B  B14  1  0.896275  0.896275  0.500000  1
  B  B15  1  0.649648  0.147320  0.000000  1
  B  B16  1  0.327993  0.179046  0.647927  1
  B  B17  1  0.075797  0.427742  0.148763  1
  B  B18  1  0.820954  0.672007  0.647927  1
  B  B19  1  0.572258  0.924203  0.148763  1
  B  B20  1  0.103725  0.103725  0.500000  1
  B  B21  1  0.852680  0.350352  0.000000  1
  B  B22  1  0.599717  0.599717  0.500000  1
  B  B23  1  0.350352  0.852680  0.000000  1
  B  B24  1  0.327993  0.179046  0.352073  1
  B  B25  1  0.075797  0.427742  0.851237  1
  B  B26  1  0.820954  0.672007  0.352073  1
  B  B27  1  0.572258  0.924203  0.851237  1
