# generated using pymatgen
data_RbGd2(P3Pd10)2
_symmetry_space_group_name_H-M   'P 1'
_cell_length_a   8.71059067
_cell_length_b   8.71059093
_cell_length_c   8.71059000
_cell_angle_alpha   60.00000353
_cell_angle_beta   60.00000256
_cell_angle_gamma   60.00000268
_symmetry_Int_Tables_number   1
_chemical_formula_structural   RbGd2(P3Pd10)2
_chemical_formula_sum   'Rb1 Gd2 P6 Pd20'
_cell_volume   467.33448371
_cell_formula_units_Z   1
loop_
 _symmetry_equiv_pos_site_id
 _symmetry_equiv_pos_as_xyz
  1  'x, y, z'
loop_
 _atom_site_type_symbol
 _atom_site_label
 _atom_site_symmetry_multiplicity
 _atom_site_fract_x
 _atom_site_fract_y
 _atom_site_fract_z
 _atom_site_occupancy
  Rb  Rb0  1  0.250000  0.250000  0.250000  1
  Gd  Gd1  1  0.750000  0.750000  0.750000  1
  Gd  Gd2  1  0.000000  0.000000  0.000000  1
  P  P3  1  0.735914  0.264086  0.264086  1
  P  P4  1  0.264086  0.735914  0.735914  1
  P  P5  1  0.264086  0.735914  0.264086  1
  P  P6  1  0.735914  0.264086  0.735914  1
  P  P7  1  0.264086  0.264086  0.735914  1
  P  P8  1  0.735914  0.735914  0.264086  1
  Pd  Pd9  1  0.389605  0.389605  0.389605  1
  Pd  Pd10  1  0.615981  0.615981  0.615981  1
  Pd  Pd11  1  0.389605  0.389605  0.831184  1
  Pd  Pd12  1  0.389605  0.831184  0.389605  1
  Pd  Pd13  1  0.615981  0.615981  0.152059  1
  Pd  Pd14  1  0.615981  0.152059  0.615981  1
  Pd  Pd15  1  0.831184  0.389605  0.389605  1
  Pd  Pd16  1  0.152059  0.615981  0.615981  1
  Pd  Pd17  1  0.349908  0.994798  0.994798  1
  Pd  Pd18  1  0.660495  0.994798  0.994798  1
  Pd  Pd19  1  0.994798  0.349908  0.660495  1
  Pd  Pd20  1  0.994798  0.660495  0.349908  1
  Pd  Pd21  1  0.994798  0.349908  0.994798  1
  Pd  Pd22  1  0.660495  0.994798  0.349908  1
  Pd  Pd23  1  0.994798  0.660495  0.994798  1
  Pd  Pd24  1  0.349908  0.994798  0.660495  1
  Pd  Pd25  1  0.994798  0.994798  0.349908  1
  Pd  Pd26  1  0.994798  0.994798  0.660495  1
  Pd  Pd27  1  0.660495  0.349908  0.994798  1
  Pd  Pd28  1  0.349908  0.660495  0.994798  1
