# generated using pymatgen
data_Rb4ThTeBr12
_symmetry_space_group_name_H-M   'P 1'
_cell_length_a   7.91923200
_cell_length_b   7.91923200
_cell_length_c   11.53072800
_cell_angle_alpha   90.00000000
_cell_angle_beta   90.00000000
_cell_angle_gamma   90.00000000
_symmetry_Int_Tables_number   1
_chemical_formula_structural   Rb4ThTeBr12
_chemical_formula_sum   'Rb4 Th1 Te1 Br12'
_cell_volume   723.14079093
_cell_formula_units_Z   1
loop_
 _symmetry_equiv_pos_site_id
 _symmetry_equiv_pos_as_xyz
  1  'x, y, z'
loop_
 _atom_site_type_symbol
 _atom_site_label
 _atom_site_symmetry_multiplicity
 _atom_site_fract_x
 _atom_site_fract_y
 _atom_site_fract_z
 _atom_site_occupancy
  Rb  Rb0  1  0.500000  0.000000  0.752229  1
  Rb  Rb1  1  0.500000  0.000000  0.247771  1
  Rb  Rb2  1  0.000000  0.500000  0.247771  1
  Rb  Rb3  1  0.000000  0.500000  0.752229  1
  Th  Th4  1  0.500000  0.500000  0.500000  1
  Te  Te5  1  0.000000  0.000000  0.000000  1
  Br  Br6  1  0.814420  0.292488  0.000000  1
  Br  Br7  1  0.185580  0.707512  0.000000  1
  Br  Br8  1  0.500000  0.500000  0.252141  1
  Br  Br9  1  0.309558  0.195365  0.500000  1
  Br  Br10  1  0.292488  0.185580  0.000000  1
  Br  Br11  1  0.804635  0.309558  0.500000  1
  Br  Br12  1  0.000000  0.000000  0.238592  1
  Br  Br13  1  0.690442  0.804635  0.500000  1
  Br  Br14  1  0.195365  0.690442  0.500000  1
  Br  Br15  1  0.500000  0.500000  0.747859  1
  Br  Br16  1  0.707512  0.814420  0.000000  1
  Br  Br17  1  0.000000  0.000000  0.761408  1
