# generated using pymatgen
data_Rb(TiSe2)8
_symmetry_space_group_name_H-M   'P 1'
_cell_length_a   7.08486100
_cell_length_b   7.08486059
_cell_length_c   16.68668700
_cell_angle_alpha   90.00000000
_cell_angle_beta   90.00000000
_cell_angle_gamma   119.99998791
_symmetry_Int_Tables_number   1
_chemical_formula_structural   Rb(TiSe2)8
_chemical_formula_sum   'Rb1 Ti8 Se16'
_cell_volume   725.37644281
_cell_formula_units_Z   1
loop_
 _symmetry_equiv_pos_site_id
 _symmetry_equiv_pos_as_xyz
  1  'x, y, z'
loop_
 _atom_site_type_symbol
 _atom_site_label
 _atom_site_symmetry_multiplicity
 _atom_site_fract_x
 _atom_site_fract_y
 _atom_site_fract_z
 _atom_site_occupancy
  Rb  Rb0  1  0.000000  0.000000  0.000000  1
  Ti  Ti1  1  0.500919  0.499081  0.734810  1
  Ti  Ti2  1  0.499081  0.500919  0.265190  1
  Ti  Ti3  1  0.500919  0.001837  0.734810  1
  Ti  Ti4  1  0.499081  0.998163  0.265190  1
  Ti  Ti5  1  0.998163  0.499081  0.734810  1
  Ti  Ti6  1  0.001837  0.500919  0.265190  1
  Ti  Ti7  1  0.000000  0.000000  0.735908  1
  Ti  Ti8  1  0.000000  0.000000  0.264092  1
  Se  Se9  1  0.832243  0.664488  0.170674  1
  Se  Se10  1  0.833913  0.667827  0.642382  1
  Se  Se11  1  0.832243  0.167757  0.170674  1
  Se  Se12  1  0.833913  0.166087  0.642382  1
  Se  Se13  1  0.333333  0.666667  0.170846  1
  Se  Se14  1  0.333333  0.666667  0.642622  1
  Se  Se15  1  0.335512  0.167757  0.170674  1
  Se  Se16  1  0.332173  0.166087  0.642382  1
  Se  Se17  1  0.664488  0.832243  0.829326  1
  Se  Se18  1  0.667827  0.833913  0.357618  1
  Se  Se19  1  0.666667  0.333333  0.829154  1
  Se  Se20  1  0.666667  0.333333  0.357378  1
  Se  Se21  1  0.167757  0.832243  0.829326  1
  Se  Se22  1  0.166087  0.833913  0.357618  1
  Se  Se23  1  0.167757  0.335512  0.829326  1
  Se  Se24  1  0.166087  0.332173  0.357618  1
