# generated using pymatgen
data_Rb(LaB9)2
_symmetry_space_group_name_H-M   'P 1'
_cell_length_a   4.18965500
_cell_length_b   4.18965500
_cell_length_c   12.62522700
_cell_angle_alpha   90.00000000
_cell_angle_beta   90.00000000
_cell_angle_gamma   90.00000000
_symmetry_Int_Tables_number   1
_chemical_formula_structural   Rb(LaB9)2
_chemical_formula_sum   'Rb1 La2 B18'
_cell_volume   221.61324844
_cell_formula_units_Z   1
loop_
 _symmetry_equiv_pos_site_id
 _symmetry_equiv_pos_as_xyz
  1  'x, y, z'
loop_
 _atom_site_type_symbol
 _atom_site_label
 _atom_site_symmetry_multiplicity
 _atom_site_fract_x
 _atom_site_fract_y
 _atom_site_fract_z
 _atom_site_occupancy
  Rb  Rb0  1  0.000000  0.000000  0.000000  1
  La  La1  1  0.000000  0.000000  0.328929  1
  La  La2  1  0.000000  0.000000  0.671071  1
  B  B3  1  0.202560  0.500000  0.170524  1
  B  B4  1  0.200606  0.500000  0.500000  1
  B  B5  1  0.202560  0.500000  0.829476  1
  B  B6  1  0.500000  0.500000  0.268700  1
  B  B7  1  0.500000  0.500000  0.598392  1
  B  B8  1  0.500000  0.500000  0.929740  1
  B  B9  1  0.500000  0.202560  0.170524  1
  B  B10  1  0.500000  0.200606  0.500000  1
  B  B11  1  0.500000  0.202560  0.829476  1
  B  B12  1  0.500000  0.500000  0.070260  1
  B  B13  1  0.500000  0.500000  0.401608  1
  B  B14  1  0.500000  0.500000  0.731300  1
  B  B15  1  0.500000  0.797440  0.170524  1
  B  B16  1  0.500000  0.799394  0.500000  1
  B  B17  1  0.500000  0.797440  0.829476  1
  B  B18  1  0.797440  0.500000  0.170524  1
  B  B19  1  0.799394  0.500000  0.500000  1
  B  B20  1  0.797440  0.500000  0.829476  1
