# generated using pymatgen
data_KRb2IrO6
_symmetry_space_group_name_H-M   'P 1'
_cell_length_a   6.37477827
_cell_length_b   6.37477849
_cell_length_c   6.37477900
_cell_angle_alpha   60.00000252
_cell_angle_beta   60.00000139
_cell_angle_gamma   60.00000206
_symmetry_Int_Tables_number   1
_chemical_formula_structural   KRb2IrO6
_chemical_formula_sum   'K1 Rb2 Ir1 O6'
_cell_volume   183.18096254
_cell_formula_units_Z   1
loop_
 _symmetry_equiv_pos_site_id
 _symmetry_equiv_pos_as_xyz
  1  'x, y, z'
loop_
 _atom_site_type_symbol
 _atom_site_label
 _atom_site_symmetry_multiplicity
 _atom_site_fract_x
 _atom_site_fract_y
 _atom_site_fract_z
 _atom_site_occupancy
  K  K0  1  0.500000  0.500000  0.500000  1
  Rb  Rb1  1  0.750000  0.750000  0.750000  1
  Rb  Rb2  1  0.250000  0.250000  0.250000  1
  Ir  Ir3  1  0.000000  0.000000  0.000000  1
  O  O4  1  0.792981  0.207019  0.207019  1
  O  O5  1  0.207019  0.207019  0.792981  1
  O  O6  1  0.207019  0.792981  0.792981  1
  O  O7  1  0.207019  0.792981  0.207019  1
  O  O8  1  0.792981  0.207019  0.792981  1
  O  O9  1  0.792981  0.792981  0.207019  1
