# generated using pymatgen
data_KRbMnP2Os
_symmetry_space_group_name_H-M   'P 1'
_cell_length_a   3.90948300
_cell_length_b   3.90374100
_cell_length_c   11.17152600
_cell_angle_alpha   90.00000000
_cell_angle_beta   90.00000000
_cell_angle_gamma   90.00000000
_symmetry_Int_Tables_number   1
_chemical_formula_structural   KRbMnP2Os
_chemical_formula_sum   'K1 Rb1 Mn1 P2 Os1'
_cell_volume   170.49546259
_cell_formula_units_Z   1
loop_
 _symmetry_equiv_pos_site_id
 _symmetry_equiv_pos_as_xyz
  1  'x, y, z'
loop_
 _atom_site_type_symbol
 _atom_site_label
 _atom_site_symmetry_multiplicity
 _atom_site_fract_x
 _atom_site_fract_y
 _atom_site_fract_z
 _atom_site_occupancy
  K  K0  1  0.000000  0.500000  0.282716  1
  Rb  Rb1  1  0.500000  0.000000  0.704931  1
  Mn  Mn2  1  0.500000  0.500000  0.002985  1
  P  P3  1  0.000000  0.500000  0.886436  1
  P  P4  1  0.500000  0.000000  0.119750  1
  Os  Os5  1  0.000000  0.000000  0.003182  1
