# generated using pymatgen
data_Ba4SmTaO8
_symmetry_space_group_name_H-M   'P 1'
_cell_length_a   7.47350291
_cell_length_b   7.47350126
_cell_length_c   6.11204700
_cell_angle_alpha   90.00000000
_cell_angle_beta   90.00000000
_cell_angle_gamma   132.09616949
_symmetry_Int_Tables_number   1
_chemical_formula_structural   Ba4SmTaO8
_chemical_formula_sum   'Ba4 Sm1 Ta1 O8'
_cell_volume   253.30922309
_cell_formula_units_Z   1
loop_
 _symmetry_equiv_pos_site_id
 _symmetry_equiv_pos_as_xyz
  1  'x, y, z'
loop_
 _atom_site_type_symbol
 _atom_site_label
 _atom_site_symmetry_multiplicity
 _atom_site_fract_x
 _atom_site_fract_y
 _atom_site_fract_z
 _atom_site_occupancy
  Ba  Ba0  1  0.354062  0.645938  0.000000  1
  Ba  Ba1  1  0.852175  0.147825  0.500000  1
  Ba  Ba2  1  0.147825  0.852175  0.500000  1
  Ba  Ba3  1  0.645938  0.354062  0.000000  1
  Sm  Sm4  1  0.000000  0.000000  0.000000  1
  Ta  Ta5  1  0.500000  0.500000  0.500000  1
  O  O6  1  0.264971  0.264971  0.729608  1
  O  O7  1  0.735029  0.735029  0.270392  1
  O  O8  1  0.735029  0.735029  0.729608  1
  O  O9  1  0.264971  0.264971  0.270392  1
  O  O10  1  0.169028  0.830972  0.000000  1
  O  O11  1  0.650187  0.349813  0.500000  1
  O  O12  1  0.349813  0.650187  0.500000  1
  O  O13  1  0.830972  0.169028  0.000000  1
