# generated using pymatgen
data_K2HoIO6
_symmetry_space_group_name_H-M   'P 1'
_cell_length_a   5.86721281
_cell_length_b   5.86721200
_cell_length_c   5.86721300
_cell_angle_alpha   59.99998872
_cell_angle_beta   59.99999329
_cell_angle_gamma   89.99998944
_symmetry_Int_Tables_number   1
_chemical_formula_structural   K2HoIO6
_chemical_formula_sum   'K2 Ho1 I1 O6'
_cell_volume   142.81716265
_cell_formula_units_Z   1
loop_
 _symmetry_equiv_pos_site_id
 _symmetry_equiv_pos_as_xyz
  1  'x, y, z'
loop_
 _atom_site_type_symbol
 _atom_site_label
 _atom_site_symmetry_multiplicity
 _atom_site_fract_x
 _atom_site_fract_y
 _atom_site_fract_z
 _atom_site_occupancy
  K  K0  1  0.250001  0.749999  0.499999  1
  K  K1  1  0.749999  0.249998  0.500001  1
  Ho  Ho2  1  0.499999  0.499999  0.000000  1
  I  I3  1  0.000000  0.000000  0.000000  1
  O  O4  1  0.229613  0.229613  0.000000  1
  O  O5  1  0.770387  0.229613  0.000000  1
  O  O6  1  0.229613  0.770386  0.000000  1
  O  O7  1  0.770386  0.770386  0.000000  1
  O  O8  1  0.770387  0.770387  0.459227  1
  O  O9  1  0.229612  0.229612  0.540773  1
