# generated using pymatgen
data_TbThSe3
_symmetry_space_group_name_H-M   'P 1'
_cell_length_a   11.25486600
_cell_length_b   4.08325700
_cell_length_c   11.08838500
_cell_angle_alpha   90.00000000
_cell_angle_beta   90.00000000
_cell_angle_gamma   90.00000000
_symmetry_Int_Tables_number   1
_chemical_formula_structural   TbThSe3
_chemical_formula_sum   'Tb4 Th4 Se12'
_cell_volume   509.58348033
_cell_formula_units_Z   4
loop_
 _symmetry_equiv_pos_site_id
 _symmetry_equiv_pos_as_xyz
  1  'x, y, z'
loop_
 _atom_site_type_symbol
 _atom_site_label
 _atom_site_symmetry_multiplicity
 _atom_site_fract_x
 _atom_site_fract_y
 _atom_site_fract_z
 _atom_site_occupancy
  Tb  Tb0  1  0.482373  0.250000  0.186840  1
  Tb  Tb1  1  0.982373  0.250000  0.313160  1
  Tb  Tb2  1  0.517627  0.750000  0.813160  1
  Tb  Tb3  1  0.017627  0.750000  0.686840  1
  Th  Th4  1  0.697560  0.750000  0.496844  1
  Th  Th5  1  0.197560  0.750000  0.003156  1
  Th  Th6  1  0.302440  0.250000  0.503156  1
  Th  Th7  1  0.802440  0.250000  0.996844  1
  Se  Se8  1  0.547916  0.250000  0.627013  1
  Se  Se9  1  0.047916  0.250000  0.872987  1
  Se  Se10  1  0.452084  0.750000  0.372987  1
  Se  Se11  1  0.952084  0.750000  0.127013  1
  Se  Se12  1  0.616770  0.750000  0.054188  1
  Se  Se13  1  0.116770  0.750000  0.445812  1
  Se  Se14  1  0.383230  0.250000  0.945812  1
  Se  Se15  1  0.883230  0.250000  0.554188  1
  Se  Se16  1  0.723551  0.250000  0.295177  1
  Se  Se17  1  0.223551  0.250000  0.204823  1
  Se  Se18  1  0.276449  0.750000  0.704823  1
  Se  Se19  1  0.776449  0.750000  0.795177  1
