# generated using pymatgen
data_Cs2SrIrO6
_symmetry_space_group_name_H-M   'P 1'
_cell_length_a   6.28100737
_cell_length_b   6.27254751
_cell_length_c   6.26666073
_cell_angle_alpha   60.12033917
_cell_angle_beta   59.98630827
_cell_angle_gamma   59.89334669
_symmetry_Int_Tables_number   1
_chemical_formula_structural   Cs2SrIrO6
_chemical_formula_sum   'Cs2 Sr1 Ir1 O6'
_cell_volume   174.57859012
_cell_formula_units_Z   1
loop_
 _symmetry_equiv_pos_site_id
 _symmetry_equiv_pos_as_xyz
  1  'x, y, z'
loop_
 _atom_site_type_symbol
 _atom_site_label
 _atom_site_symmetry_multiplicity
 _atom_site_fract_x
 _atom_site_fract_y
 _atom_site_fract_z
 _atom_site_occupancy
  Cs  Cs0  1  0.750000  0.750000  0.750000  1
  Cs  Cs1  1  0.250000  0.250000  0.250000  1
  Sr  Sr2  1  0.500000  0.500000  0.500000  1
  Ir  Ir3  1  0.000000  0.000000  0.000000  1
  O  O4  1  0.785065  0.214935  0.214935  1
  O  O5  1  0.213959  0.213959  0.786041  1
  O  O6  1  0.214935  0.785065  0.785065  1
  O  O7  1  0.214410  0.785590  0.214410  1
  O  O8  1  0.785590  0.214410  0.785590  1
  O  O9  1  0.786041  0.786041  0.213959  1
