# generated using pymatgen
data_La6In2CF
_symmetry_space_group_name_H-M   'P 1'
_cell_length_a   7.22320832
_cell_length_b   7.22320761
_cell_length_c   7.22320800
_cell_angle_alpha   59.99999823
_cell_angle_beta   60.00000149
_cell_angle_gamma   59.99999509
_symmetry_Int_Tables_number   1
_chemical_formula_structural   La6In2CF
_chemical_formula_sum   'La6 In2 C1 F1'
_cell_volume   266.48658074
_cell_formula_units_Z   1
loop_
 _symmetry_equiv_pos_site_id
 _symmetry_equiv_pos_as_xyz
  1  'x, y, z'
loop_
 _atom_site_type_symbol
 _atom_site_label
 _atom_site_symmetry_multiplicity
 _atom_site_fract_x
 _atom_site_fract_y
 _atom_site_fract_z
 _atom_site_occupancy
  La  La0  1  0.756278  0.243722  0.243722  1
  La  La1  1  0.243722  0.756278  0.243722  1
  La  La2  1  0.756278  0.756278  0.243722  1
  La  La3  1  0.756278  0.243722  0.756278  1
  La  La4  1  0.243722  0.243722  0.756278  1
  La  La5  1  0.243722  0.756278  0.756278  1
  In  In6  1  0.250000  0.250000  0.250000  1
  In  In7  1  0.750000  0.750000  0.750000  1
  C  C8  1  0.000000  0.000000  0.000000  1
  F  F9  1  0.500000  0.500000  0.500000  1
