# generated using pymatgen
data_LiCaCoH6
_symmetry_space_group_name_H-M   'P 1'
_cell_length_a   4.80230327
_cell_length_b   4.80230292
_cell_length_c   4.80230300
_cell_angle_alpha   60.00000634
_cell_angle_beta   60.00000878
_cell_angle_gamma   59.99999944
_symmetry_Int_Tables_number   1
_chemical_formula_structural   LiCaCoH6
_chemical_formula_sum   'Li1 Ca1 Co1 H6'
_cell_volume   78.31297859
_cell_formula_units_Z   1
loop_
 _symmetry_equiv_pos_site_id
 _symmetry_equiv_pos_as_xyz
  1  'x, y, z'
loop_
 _atom_site_type_symbol
 _atom_site_label
 _atom_site_symmetry_multiplicity
 _atom_site_fract_x
 _atom_site_fract_y
 _atom_site_fract_z
 _atom_site_occupancy
  Li  Li0  1  0.250000  0.250000  0.250000  1
  Ca  Ca1  1  0.750000  0.750000  0.750000  1
  Co  Co2  1  0.000000  0.000000  0.000000  1
  H  H3  1  0.772896  0.227104  0.227104  1
  H  H4  1  0.227104  0.772896  0.227104  1
  H  H5  1  0.772896  0.772896  0.227104  1
  H  H6  1  0.227104  0.772896  0.772896  1
  H  H7  1  0.772896  0.227104  0.772896  1
  H  H8  1  0.227104  0.227104  0.772896  1
