# generated using pymatgen
data_MgCd2(Ni10P3)2
_symmetry_space_group_name_H-M   'P 1'
_cell_length_a   7.86591903
_cell_length_b   7.86591871
_cell_length_c   7.86591900
_cell_angle_alpha   60.00000298
_cell_angle_beta   60.00000433
_cell_angle_gamma   60.00000397
_symmetry_Int_Tables_number   1
_chemical_formula_structural   MgCd2(Ni10P3)2
_chemical_formula_sum   'Mg1 Cd2 Ni20 P6'
_cell_volume   344.13863715
_cell_formula_units_Z   1
loop_
 _symmetry_equiv_pos_site_id
 _symmetry_equiv_pos_as_xyz
  1  'x, y, z'
loop_
 _atom_site_type_symbol
 _atom_site_label
 _atom_site_symmetry_multiplicity
 _atom_site_fract_x
 _atom_site_fract_y
 _atom_site_fract_z
 _atom_site_occupancy
  Mg  Mg0  1  0.000000  0.000000  0.000000  1
  Cd  Cd1  1  0.250000  0.250000  0.250000  1
  Cd  Cd2  1  0.750000  0.750000  0.750000  1
  Ni  Ni3  1  0.385028  0.385028  0.844916  1
  Ni  Ni4  1  0.614973  0.614973  0.614972  1
  Ni  Ni5  1  0.000000  0.347947  0.000000  1
  Ni  Ni6  1  0.347947  0.000000  0.000000  1
  Ni  Ni7  1  0.000000  0.347947  0.652053  1
  Ni  Ni8  1  0.844916  0.385028  0.385027  1
  Ni  Ni9  1  0.347947  0.000000  0.652053  1
  Ni  Ni10  1  0.000000  0.000000  0.347947  1
  Ni  Ni11  1  0.652053  0.347947  0.000000  1
  Ni  Ni12  1  0.000000  0.652053  0.347947  1
  Ni  Ni13  1  0.000000  0.000000  0.652053  1
  Ni  Ni14  1  0.347947  0.652053  0.000000  1
  Ni  Ni15  1  0.652053  0.000000  0.000000  1
  Ni  Ni16  1  0.000000  0.652053  0.000000  1
  Ni  Ni17  1  0.385028  0.844917  0.385028  1
  Ni  Ni18  1  0.614972  0.614973  0.155083  1
  Ni  Ni19  1  0.614972  0.155084  0.614972  1
  Ni  Ni20  1  0.155084  0.614973  0.614973  1
  Ni  Ni21  1  0.385027  0.385028  0.385027  1
  Ni  Ni22  1  0.652053  0.000000  0.347947  1
  P  P23  1  0.264684  0.264684  0.735316  1
  P  P24  1  0.735316  0.735316  0.264684  1
  P  P25  1  0.735316  0.264684  0.264684  1
  P  P26  1  0.264684  0.735316  0.735316  1
  P  P27  1  0.264684  0.735316  0.264684  1
  P  P28  1  0.735316  0.264684  0.735316  1
