# generated using pymatgen
data_Tb6MgCr(Co4P3)4
_symmetry_space_group_name_H-M   'P 1'
_cell_length_a   3.71822100
_cell_length_b   10.59406600
_cell_length_c   12.28411300
_cell_angle_alpha   90.00000000
_cell_angle_beta   90.00000000
_cell_angle_gamma   90.00000000
_symmetry_Int_Tables_number   1
_chemical_formula_structural   Tb6MgCr(Co4P3)4
_chemical_formula_sum   'Tb6 Mg1 Cr1 Co16 P12'
_cell_volume   483.88446166
_cell_formula_units_Z   1
loop_
 _symmetry_equiv_pos_site_id
 _symmetry_equiv_pos_as_xyz
  1  'x, y, z'
loop_
 _atom_site_type_symbol
 _atom_site_label
 _atom_site_symmetry_multiplicity
 _atom_site_fract_x
 _atom_site_fract_y
 _atom_site_fract_z
 _atom_site_occupancy
  Tb  Tb0  1  0.000000  0.500000  0.524845  1
  Tb  Tb1  1  0.500000  0.000000  0.478079  1
  Tb  Tb2  1  0.500000  0.821579  0.205970  1
  Tb  Tb3  1  0.500000  0.178421  0.205970  1
  Tb  Tb4  1  0.000000  0.682170  0.794436  1
  Tb  Tb5  1  0.000000  0.317830  0.794436  1
  Mg  Mg6  1  0.500000  0.500000  0.153308  1
  Cr  Cr7  1  0.000000  0.000000  0.842867  1
  Co  Co8  1  0.500000  0.500000  0.704506  1
  Co  Co9  1  0.000000  0.000000  0.296479  1
  Co  Co10  1  0.000000  0.500000  0.986205  1
  Co  Co11  1  0.500000  0.000000  0.010061  1
  Co  Co12  1  0.500000  0.328780  0.992781  1
  Co  Co13  1  0.500000  0.671220  0.992781  1
  Co  Co14  1  0.000000  0.163816  0.002750  1
  Co  Co15  1  0.000000  0.836184  0.002750  1
  Co  Co16  1  0.500000  0.294917  0.433131  1
  Co  Co17  1  0.500000  0.705083  0.433131  1
  Co  Co18  1  0.000000  0.202817  0.570764  1
  Co  Co19  1  0.000000  0.797183  0.570764  1
  Co  Co20  1  0.500000  0.880350  0.708379  1
  Co  Co21  1  0.500000  0.119650  0.708379  1
  Co  Co22  1  0.000000  0.622940  0.294081  1
  Co  Co23  1  0.000000  0.377060  0.294081  1
  P  P24  1  0.500000  0.500000  0.884134  1
  P  P25  1  0.000000  0.000000  0.115776  1
  P  P26  1  0.500000  0.500000  0.353068  1
  P  P27  1  0.000000  0.000000  0.654477  1
  P  P28  1  0.500000  0.309543  0.616636  1
  P  P29  1  0.500000  0.690457  0.616636  1
  P  P30  1  0.000000  0.189565  0.385803  1
  P  P31  1  0.000000  0.810435  0.385803  1
  P  P32  1  0.500000  0.848533  0.889807  1
  P  P33  1  0.500000  0.151467  0.889807  1
  P  P34  1  0.000000  0.661744  0.103562  1
  P  P35  1  0.000000  0.338256  0.103562  1
