# generated using pymatgen
data_Sm5Mg(P2Rh7)2
_symmetry_space_group_name_H-M   'P 1'
_cell_length_a   4.11954000
_cell_length_b   4.11888100
_cell_length_c   24.61902800
_cell_angle_alpha   90.00000000
_cell_angle_beta   90.00000000
_cell_angle_gamma   90.00000000
_symmetry_Int_Tables_number   1
_chemical_formula_structural   Sm5Mg(P2Rh7)2
_chemical_formula_sum   'Sm5 Mg1 P4 Rh14'
_cell_volume   417.73308296
_cell_formula_units_Z   1
loop_
 _symmetry_equiv_pos_site_id
 _symmetry_equiv_pos_as_xyz
  1  'x, y, z'
loop_
 _atom_site_type_symbol
 _atom_site_label
 _atom_site_symmetry_multiplicity
 _atom_site_fract_x
 _atom_site_fract_y
 _atom_site_fract_z
 _atom_site_occupancy
  Sm  Sm0  1  0.000000  0.000000  0.888551  1
  Sm  Sm1  1  0.000000  0.000000  0.111449  1
  Sm  Sm2  1  0.000000  0.000000  0.308075  1
  Sm  Sm3  1  0.000000  0.000000  0.500000  1
  Sm  Sm4  1  0.000000  0.000000  0.691925  1
  Mg  Mg5  1  0.500000  0.000000  0.000000  1
  P  P6  1  0.500000  0.500000  0.161599  1
  P  P7  1  0.500000  0.500000  0.371584  1
  P  P8  1  0.500000  0.500000  0.628416  1
  P  P9  1  0.500000  0.500000  0.838401  1
  Rh  Rh10  1  0.500000  0.500000  0.930407  1
  Rh  Rh11  1  0.500000  0.500000  0.069593  1
  Rh  Rh12  1  0.500000  0.500000  0.282391  1
  Rh  Rh13  1  0.500000  0.500000  0.500000  1
  Rh  Rh14  1  0.500000  0.500000  0.717609  1
  Rh  Rh15  1  0.500000  0.000000  0.207499  1
  Rh  Rh16  1  0.500000  0.000000  0.411918  1
  Rh  Rh17  1  0.500000  0.000000  0.588082  1
  Rh  Rh18  1  0.500000  0.000000  0.792501  1
  Rh  Rh19  1  0.000000  0.500000  0.000000  1
  Rh  Rh20  1  0.000000  0.500000  0.207323  1
  Rh  Rh21  1  0.000000  0.500000  0.411984  1
  Rh  Rh22  1  0.000000  0.500000  0.588016  1
  Rh  Rh23  1  0.000000  0.500000  0.792677  1
