# generated using pymatgen
data_MgSc(NbSe2)8
_symmetry_space_group_name_H-M   'P 1'
_cell_length_a   7.01783000
_cell_length_b   7.01782995
_cell_length_c   13.62577300
_cell_angle_alpha   90.00000000
_cell_angle_beta   90.00000000
_cell_angle_gamma   120.00000024
_symmetry_Int_Tables_number   1
_chemical_formula_structural   MgSc(NbSe2)8
_chemical_formula_sum   'Mg1 Sc1 Nb8 Se16'
_cell_volume   581.16234066
_cell_formula_units_Z   1
loop_
 _symmetry_equiv_pos_site_id
 _symmetry_equiv_pos_as_xyz
  1  'x, y, z'
loop_
 _atom_site_type_symbol
 _atom_site_label
 _atom_site_symmetry_multiplicity
 _atom_site_fract_x
 _atom_site_fract_y
 _atom_site_fract_z
 _atom_site_occupancy
  Mg  Mg0  1  0.000000  0.000000  0.000000  1
  Sc  Sc1  1  0.000000  0.000000  0.500000  1
  Nb  Nb2  1  0.000000  0.000000  0.249331  1
  Nb  Nb3  1  0.000000  0.000000  0.750669  1
  Nb  Nb4  1  0.506925  0.013849  0.247924  1
  Nb  Nb5  1  0.986151  0.493075  0.247924  1
  Nb  Nb6  1  0.506925  0.493075  0.247924  1
  Nb  Nb7  1  0.493075  0.986151  0.752076  1
  Nb  Nb8  1  0.013849  0.506925  0.752076  1
  Nb  Nb9  1  0.493075  0.506925  0.752076  1
  Se  Se10  1  0.333333  0.666667  0.878285  1
  Se  Se11  1  0.666667  0.333333  0.121715  1
  Se  Se12  1  0.666667  0.333333  0.374195  1
  Se  Se13  1  0.333333  0.666667  0.625805  1
  Se  Se14  1  0.168808  0.831192  0.370594  1
  Se  Se15  1  0.168808  0.337613  0.370594  1
  Se  Se16  1  0.662387  0.831192  0.370594  1
  Se  Se17  1  0.831192  0.168808  0.629406  1
  Se  Se18  1  0.831192  0.662387  0.629406  1
  Se  Se19  1  0.337613  0.168808  0.629406  1
  Se  Se20  1  0.831270  0.168730  0.873057  1
  Se  Se21  1  0.831270  0.662540  0.873057  1
  Se  Se22  1  0.337460  0.168730  0.873057  1
  Se  Se23  1  0.168730  0.831270  0.126943  1
  Se  Se24  1  0.168730  0.337460  0.126943  1
  Se  Se25  1  0.662540  0.831270  0.126943  1
